@<TRIPOS>MOLECULE
4HGT_pre_1
   45    48     0     0     0
SMALL
USER_CHARGES

@<TRIPOS>ATOM
      1 C1         -8.9721   -0.6437   -2.9401 C.ar      1 <0>        -0.1500
      2 C2        -10.2517   -1.1883   -2.8333 C.ar      1 <0>        -0.1500
      3 C3         -4.1344    0.5249   -2.3966 C.ar      1 <0>        -0.1500
      4 C4         -1.7149   -0.5264   -0.8261 C.2       1 <0>        -0.1500
      5 C5         -8.1053   -2.8059   -3.5807 C.ar      1 <0>        -0.1500
      6 C6         -3.5343    1.9656   -4.6350 C.ar      1 <0>         0.1600
      7 C7         -2.8216    0.9260   -2.6181 C.ar      1 <0>         0.0530
      8 C8         -0.5144   -0.3964   -0.0870 C.2       1 <0>        -0.0860
      9 C9         -7.8988   -1.4525   -3.3139 C.ar      1 <0>         0.0825
     10 C10        -2.5075    1.6603   -3.7562 C.ar      1 <0>         0.0825
     11 C11       -10.4582   -2.5417   -3.1001 C.ar      1 <0>         0.1900
     12 C12        -9.3850   -3.3506   -3.4739 C.ar      1 <0>         0.1900
     13 C13        -1.8030    0.5708   -1.6593 C.2       1 <0>        -0.2046
     14 C14         0.0800    0.7812   -0.4868 C.2       1 <0>        -0.3316
     15 C15        -5.0884    0.8812   -3.3361 C.ar      1 <0>         0.1665
     16 C16         0.0824   -1.2345    0.9343 C.2       1 <0>         0.7160
     17 C17         1.3461    1.3289    0.0532 C.3       1 <0>         0.1800
     18 C18         2.1675    0.1654    0.6220 C.3       1 <0>         0.3001
     19 C19        -1.0426    2.8248   -5.2238 C.3       1 <0>         0.2800
     20 C20        -6.5079    0.4678   -3.1309 C.3       1 <0>         0.4235
     21 N1         -4.8213    1.5936   -4.4536 N.ar      1 <0>        -0.6200
     22 N2         -0.7022    1.3629   -1.4431 N.pl3     1 <0>         0.0332
     23 N3          1.3594   -0.8360    1.3261 N.am      1 <0>        -0.7301
     24 O1         -0.5043   -2.1976    1.4191 O.2       1 <0>        -0.5700
     25 O2         -1.2425    2.0774   -4.0236 O.3       1 <0>        -0.3625
     26 O3         -6.6413   -0.9183   -3.4187 O.3       1 <0>        -0.3625
     27 F1        -11.6869   -3.0649   -2.9972 F         1 <0>        -0.1900
     28 F2         -9.5836   -4.6502   -3.7295 F         1 <0>        -0.1900
     29 H1         -8.8178    0.4113   -2.7308 H         1 <0>         0.1500
     30 H2        -11.0872   -0.5584   -2.5427 H         1 <0>         0.1500
     31 H3         -4.4101   -0.0495   -1.5167 H         1 <0>         0.1500
     32 H4         -2.4344   -1.3317   -0.7616 H         1 <0>         0.1500
     33 H5         -7.2732   -3.4411   -3.8718 H         1 <0>         0.1500
     34 H6         -3.3479    2.5358   -5.5397 H         1 <0>         0.1500
     35 H7          1.9191    1.8508   -0.7204 H         1 <0>         0.0000
     36 H8          1.1190    2.0474    0.8492 H         1 <0>         0.0000
     37 H9          2.6707   -0.3696   -0.1922 H         1 <0>         0.0000
     38 H10         2.9351    0.5300    1.3117 H         1 <0>         0.0000
     39 H11         0.0124    3.0947   -5.3143 H         1 <0>         0.0000
     40 H12        -1.6596    3.7266   -5.1995 H         1 <0>         0.0000
     41 H13        -1.3336    2.2095   -6.0784 H         1 <0>         0.0000
     42 H14        -6.8301    0.6448   -2.0961 H         1 <0>         0.0000
     43 H15        -7.1832    1.0321   -3.7878 H         1 <0>         0.0000
     44 H16        -0.5065    2.2388   -1.9093 H         1 <0>         0.2700
     45 H17         1.7569   -1.2679    2.1546 H         1 <0>         0.3700
@<TRIPOS>BOND
     1    1    2 ar
     2    1    9 ar
     3    2   11 ar
     4    3    7 ar
     5    3   15 ar
     6    4    8 1
     7    4   13 2
     8    5    9 ar
     9    5   12 ar
    10    6   10 ar
    11    6   21 ar
    12    7   10 ar
    13    7   13 1
    14    8   14 2
    15    8   16 1
    16    9   26 1
    17   10   25 1
    18   11   12 ar
    19   11   27 1
    20   12   28 1
    21   13   22 1
    22   14   17 1
    23   14   22 1
    24   15   20 1
    25   15   21 ar
    26   16   23 am
    27   16   24 2
    28   17   18 1
    29   18   23 1
    30   19   25 1
    31   20   26 1
    32    1   29 1
    33    2   30 1
    34    3   31 1
    35    4   32 1
    36    5   33 1
    37    6   34 1
    38   17   35 1
    39   17   36 1
    40   18   37 1
    41   18   38 1
    42   19   39 1
    43   19   40 1
    44   19   41 1
    45   20   42 1
    46   20   43 1
    47   22   44 1
    48   23   45 1
@<TRIPOS>MOLECULE
4HNF_1
   43    46     0     0     0
SMALL
USER_CHARGES

@<TRIPOS>ATOM
      1 C1         -2.3354    1.8211   -7.6547 C.ar      1 <0>        -0.1500
      2 C2         -1.9254    1.0006   -6.6039 C.ar      1 <0>        -0.1500
      3 C3         -3.6051    1.6613   -8.2099 C.ar      1 <0>        -0.1500
      4 C4         -4.0546   -0.1397   -6.6634 C.ar      1 <0>        -0.1500
      5 C5         -0.4364   -5.4942   -2.9463 C.ar      1 <0>         0.4700
      6 C6         -0.7212   -2.9395   -3.6126 C.ar      1 <0>         0.0000
      7 C7         -2.7850    0.0202   -6.1082 C.ar      1 <0>         0.0825
      8 C8         -4.4646    0.6809   -7.7143 C.ar      1 <0>         0.1770
      9 C9         -0.7623   -1.5366   -3.5086 C.2       1 <0>         0.1078
     10 C10        -0.3885   -3.3656   -2.3387 C.ar      1 <0>         0.1054
     11 C11        -0.9118   -3.9221   -4.5783 C.ar      1 <0>         0.4100
     12 C12        -1.0306   -1.5514    0.6917 C.3       1 <0>         0.0000
     13 C13         1.4180   -1.4327    0.0878 C.3       1 <0>         0.0000
     14 C14        -0.5957   -1.4632    2.1501 C.3       1 <0>         0.2800
     15 C15         1.7032   -1.3498    1.5831 C.3       1 <0>         0.2800
     16 C16         0.0897   -2.1624   -0.1637 C.3       1 <0>         0.2556
     17 C17        -1.0704   -0.5550   -4.5639 C.3       1 <0>         0.4610
     18 N1         -0.2275   -4.6331   -1.9270 N.ar      1 <0>        -0.5670
     19 N2         -0.7648   -5.2234   -4.2320 N.ar      1 <0>        -0.6200
     20 N3         -0.4803   -1.1017   -2.2756 N.2       1 <0>        -0.7068
     21 N4         -0.2577   -2.2363   -1.5864 N.pl3     1 <0>         0.3140
     22 N5         -1.2498   -3.5846   -5.9011 N.pl3     1 <0>        -0.9000
     23 O1          0.6201   -0.7250    2.2720 O.3       1 <0>        -0.5600
     24 O2         -2.3835   -0.7834   -5.0772 O.3       1 <0>        -0.3625
     25 Cl1        -6.0306    0.4850   -8.3998 Cl        1 <0>        -0.1770
     26 H1         -1.6661    2.5846   -8.0401 H         1 <0>         0.1500
     27 H2         -0.9352    1.1296   -6.1755 H         1 <0>         0.1500
     28 H3         -3.9109    2.3074   -9.0288 H         1 <0>         0.1500
     29 H4         -4.7186   -0.9067   -6.2715 H         1 <0>         0.1500
     30 H5         -0.3268   -6.5457   -2.7029 H         1 <0>         0.1500
     31 H6         -1.9512   -2.1394    0.6028 H         1 <0>         0.0000
     32 H7         -1.2547   -0.5414    0.3234 H         1 <0>         0.0000
     33 H8          1.3528   -0.4155   -0.3207 H         1 <0>         0.0000
     34 H9          2.2417   -1.9367   -0.4304 H         1 <0>         0.0000
     35 H10        -1.3617   -0.9436    2.7346 H         1 <0>         0.0000
     36 H11        -0.4641   -2.4596    2.5882 H         1 <0>         0.0000
     37 H12         1.8834   -2.3434    2.0102 H         1 <0>         0.0000
     38 H13         2.6008   -0.7477    1.7565 H         1 <0>         0.0000
     39 H14         0.2164   -3.2340    0.1398 H         1 <0>         0.0000
     40 H15        -1.0281    0.4852   -4.1931 H         1 <0>         0.0000
     41 H16        -0.3594   -0.6168   -5.4077 H         1 <0>         0.0000
     42 H17        -1.4012   -2.6235   -6.1402 H         1 <0>         0.4000
     43 H18        -1.4274   -4.3141   -6.5646 H         1 <0>         0.4000
@<TRIPOS>BOND
     1    1    2 ar
     2    1    3 ar
     3    2    7 ar
     4    3    8 ar
     5    4    7 ar
     6    4    8 ar
     7    5   18 ar
     8    5   19 ar
     9    6    9 1
    10    6   10 ar
    11    6   11 ar
    12    7   24 1
    13    8   25 1
    14    9   17 1
    15    9   20 2
    16   10   18 ar
    17   10   21 1
    18   11   19 ar
    19   11   22 1
    20   12   14 1
    21   12   16 1
    22   13   15 1
    23   13   16 1
    24   14   23 1
    25   15   23 1
    26   16   21 1
    27   17   24 1
    28   20   21 1
    29    1   26 1
    30    2   27 1
    31    3   28 1
    32    4   29 1
    33    5   30 1
    34   12   31 1
    35   12   32 1
    36   13   33 1
    37   13   34 1
    38   14   35 1
    39   14   36 1
    40   15   37 1
    41   15   38 1
    42   16   39 1
    43   17   40 1
    44   17   41 1
    45   22   42 1
    46   22   43 1
@<TRIPOS>MOLECULE
4KB8_1
   40    42     0     0     0
SMALL
USER_CHARGES

@<TRIPOS>ATOM
      1 C1          1.6179   -2.0176    0.2952 C.ar      1 <0>        -0.1500
      2 C2          3.1456   -0.6707    1.5947 C.ar      1 <0>        -0.1500
      3 C3          0.5394   -1.4443    0.9688 C.ar      1 <0>        -0.1500
      4 C4          2.0671   -0.0973    2.2683 C.ar      1 <0>        -0.1500
      5 C5          3.1022   -2.3784   -3.5988 C.ar      1 <0>        -0.1500
      6 C6          3.3577   -0.2141   -2.5814 C.ar      1 <0>        -0.1500
      7 C7          2.4186   -1.7535   -4.6294 C.ar      1 <0>         0.1600
      8 C8          5.4579   -2.8878   -1.6199 C.2       1 <0>        -0.3016
      9 C9          2.9210   -1.6309    0.6081 C.ar      1 <0>         0.0540
     10 C10         3.5774   -1.5869   -2.5591 C.ar      1 <0>         0.0540
     11 C11         4.2884   -2.1836   -1.4688 C.2       1 <0>        -0.0540
     12 C12         0.7640   -0.4842    1.9553 C.ar      1 <0>         0.1900
     13 C13         4.0312   -2.2213   -0.0852 C.2       1 <0>         0.2348
     14 C14         2.6629    0.3139   -3.6576 C.ar      1 <0>         0.1665
     15 C15         6.9828   -4.0627   -0.0152 C.3       1 <0>         0.2556
     16 C16         1.0315    3.6854   -2.8631 C.3       1 <0>         0.5030
     17 C17         2.4080    1.7833   -3.7152 C.3       1 <0>         0.6465
     18 N1          2.1859   -0.4230   -4.6858 N.ar      1 <0>        -0.6200
     19 N2          4.9624   -2.8961    0.5941 N.2       1 <0>        -0.7068
     20 N3          5.8160   -3.2891   -0.3666 N.pl3     1 <0>         0.3140
     21 N4          1.3405    2.2339   -2.7806 N.4       1 <0>        -0.9060
     22 F1         -0.2718    0.0664    2.6022 F         1 <0>        -0.1900
     23 H1          1.4260   -2.7653   -0.4709 H         1 <0>         0.1500
     24 H2          4.1554   -0.3581    1.8501 H         1 <0>         0.1500
     25 H3         -0.4752   -1.7460    0.7258 H         1 <0>         0.1500
     26 H4          2.2411    0.6506    3.0363 H         1 <0>         0.1500
     27 H5          3.2551   -3.4528   -3.6173 H         1 <0>         0.1500
     28 H6          3.7174    0.4279   -1.7825 H         1 <0>         0.1500
     29 H7          2.0281   -2.3257   -5.4643 H         1 <0>         0.1500
     30 H8          6.0544   -3.1339   -2.4887 H         1 <0>         0.1500
     31 H9          7.7994   -3.3662    0.1924 H         1 <0>         0.0000
     32 H10         6.7647   -4.6701    0.8676 H         1 <0>         0.0000
     33 H11         7.2435   -4.7220   -0.8479 H         1 <0>         0.0000
     34 H12         0.7407    3.9069   -3.8916 H         1 <0>         0.0000
     35 H13         0.2135    3.8927   -2.1705 H         1 <0>         0.0000
     36 H14         1.9320    4.2351   -2.5828 H         1 <0>         0.0000
     37 H15         3.3068    2.3594   -3.4579 H         1 <0>         0.0000
     38 H16         2.0932    2.0991   -4.7188 H         1 <0>         0.0000
     39 H17         1.6338    2.0282   -1.8469 H         1 <0>         0.4500
     40 H18         0.5061    1.7233   -2.9880 H         1 <0>         0.4500
@<TRIPOS>BOND
     1    1    3 ar
     2    1    9 ar
     3    2    4 ar
     4    2    9 ar
     5    3   12 ar
     6    4   12 ar
     7    5    7 ar
     8    5   10 ar
     9    6   10 ar
    10    6   14 ar
    11    7   18 ar
    12    8   11 2
    13    8   20 1
    14    9   13 1
    15   10   11 1
    16   11   13 1
    17   12   22 1
    18   13   19 2
    19   14   17 1
    20   14   18 ar
    21   15   20 1
    22   16   21 1
    23   17   21 1
    24   19   20 1
    25    1   23 1
    26    2   24 1
    27    3   25 1
    28    4   26 1
    29    5   27 1
    30    6   28 1
    31    7   29 1
    32    8   30 1
    33   15   31 1
    34   15   32 1
    35   15   33 1
    36   16   34 1
    37   16   35 1
    38   16   36 1
    39   17   37 1
    40   17   38 1
    41   21   39 1
    42   21   40 1
@<TRIPOS>MOLECULE
4KBA_1
   42    45     0     0     0
SMALL
USER_CHARGES

@<TRIPOS>ATOM
      1 C1         -0.7155    2.8341   -3.4190 C.ar      1 <0>        -0.1500
      2 C2          1.6348    2.5115   -3.8763 C.ar      1 <0>        -0.1500
      3 C3         -1.0340    2.2539   -4.6468 C.ar      1 <0>        -0.1500
      4 C4          1.3163    1.9313   -5.1041 C.ar      1 <0>        -0.1500
      5 C5         -1.3975    2.2400    0.6644 C.ar      1 <0>        -0.1500
      6 C6         -2.1472    1.1474    1.0607 C.ar      1 <0>         0.1600
      7 C7          1.1250    4.0235    0.3774 C.2       1 <0>        -0.3016
      8 C8          0.6190    2.9630   -3.0338 C.ar      1 <0>         0.0540
      9 C9         -0.2372    1.9997   -0.0582 C.ar      1 <0>         0.0540
     10 C10         0.5595    3.1185   -0.4872 C.2       1 <0>        -0.0540
     11 C11         0.1365    0.6882   -0.3420 C.ar      1 <0>         0.0825
     12 C12        -0.0181    1.8025   -5.4894 C.ar      1 <0>         0.1900
     13 C13         0.9481    3.5627   -1.7653 C.2       1 <0>         0.2348
     14 C14        -0.6879   -0.3556    0.0723 C.ar      1 <0>         0.1665
     15 C15        -0.4043   -1.7820   -0.2959 C.3       1 <0>         0.6465
     16 C16         2.1058   -1.7484   -0.6066 C.3       1 <0>         0.5030
     17 C17         2.2502   -0.2602   -0.3459 C.3       1 <0>         0.2800
     18 C18         2.5468    6.0617    0.0531 C.3       1 <0>         0.2556
     19 N1         -1.8253   -0.1357    0.7785 N.ar      1 <0>        -0.6200
     20 N2          1.7020    4.6643   -1.7212 N.2       1 <0>        -0.7068
     21 N3          1.7917    4.9200   -0.4048 N.pl3     1 <0>         0.3140
     22 N4          0.9322   -2.2885    0.1450 N.4       1 <0>        -0.9060
     23 O1          1.2747    0.4951   -1.0723 O.3       1 <0>        -0.3625
     24 F1         -0.3241    1.2453   -6.6684 F         1 <0>        -0.1900
     25 H1         -1.5190    3.1817   -2.7739 H         1 <0>         0.1500
     26 H2          2.6799    2.6043   -3.5904 H         1 <0>         0.1500
     27 H3         -2.0728    2.1543   -4.9473 H         1 <0>         0.1500
     28 H4          2.1066    1.5792   -5.7605 H         1 <0>         0.1500
     29 H5         -1.7208    3.2447    0.9171 H         1 <0>         0.1500
     30 H6         -3.0623    1.2778    1.6291 H         1 <0>         0.1500
     31 H7          1.1128    4.1078    1.4562 H         1 <0>         0.1500
     32 H8         -1.1365   -2.4443    0.1792 H         1 <0>         0.0000
     33 H9         -0.4745   -1.9272   -1.3797 H         1 <0>         0.0000
     34 H10         1.9464   -1.9773   -1.6648 H         1 <0>         0.0000
     35 H11         2.9778   -2.2961   -0.2371 H         1 <0>         0.0000
     36 H12         2.2474   -0.0190    0.7262 H         1 <0>         0.0000
     37 H13         3.2259    0.0623   -0.7271 H         1 <0>         0.0000
     38 H14         3.5790    5.7403    0.2153 H         1 <0>         0.0000
     39 H15         2.5066    6.8516   -0.7021 H         1 <0>         0.0000
     40 H16         2.1103    6.4339    0.9841 H         1 <0>         0.0000
     41 H17         1.0485   -2.0513    1.1095 H         1 <0>         0.4500
     42 H18         0.9331   -3.2834    0.0439 H         1 <0>         0.4500
@<TRIPOS>BOND
     1    1    3 ar
     2    1    8 ar
     3    2    4 ar
     4    2    8 ar
     5    3   12 ar
     6    4   12 ar
     7    5    6 ar
     8    5    9 ar
     9    6   19 ar
    10    7   10 2
    11    7   21 1
    12    8   13 1
    13    9   10 1
    14    9   11 ar
    15   10   13 1
    16   11   14 ar
    17   11   23 1
    18   12   24 1
    19   13   20 2
    20   14   15 1
    21   14   19 ar
    22   15   22 1
    23   16   17 1
    24   16   22 1
    25   17   23 1
    26   18   21 1
    27   20   21 1
    28    1   25 1
    29    2   26 1
    30    3   27 1
    31    4   28 1
    32    5   29 1
    33    6   30 1
    34    7   31 1
    35   15   32 1
    36   15   33 1
    37   16   34 1
    38   16   35 1
    39   17   36 1
    40   17   37 1
    41   18   38 1
    42   18   39 1
    43   18   40 1
    44   22   41 1
    45   22   42 1
@<TRIPOS>MOLECULE
4KBC_1
   32    34     0     0     0
SMALL
USER_CHARGES

@<TRIPOS>ATOM
      1 C1          1.6179   -2.0177    0.2952 C.ar      1 <0>        -0.1500
      2 C2          3.1456   -0.6707    1.5947 C.ar      1 <0>        -0.1500
      3 C3          0.5394   -1.4444    0.9688 C.ar      1 <0>        -0.1500
      4 C4          2.0671   -0.0973    2.2683 C.ar      1 <0>        -0.1500
      5 C5          3.1026   -2.3785   -3.5990 C.ar      1 <0>        -0.1500
      6 C6          3.3581   -0.2142   -2.5817 C.ar      1 <0>        -0.1500
      7 C7          2.4192   -1.7537   -4.6297 C.ar      1 <0>         0.1600
      8 C8          5.4579   -2.8880   -1.6199 C.2       1 <0>        -0.3016
      9 C9          2.9210   -1.6309    0.6081 C.ar      1 <0>         0.0540
     10 C10         3.5777   -1.5870   -2.5593 C.ar      1 <0>         0.0540
     11 C11         4.2884   -2.1837   -1.4688 C.2       1 <0>        -0.0540
     12 C12         0.7640   -0.4842    1.9553 C.ar      1 <0>         0.1900
     13 C13         4.0312   -2.2213   -0.0852 C.2       1 <0>         0.2348
     14 C14         2.6635    0.3138   -3.6581 C.ar      1 <0>         0.1665
     15 C15         2.4088    1.7833   -3.7158 C.3       1 <0>         0.4235
     16 N1          2.1866   -0.4231   -4.6863 N.ar      1 <0>        -0.6200
     17 N2          4.9624   -2.8961    0.5942 N.2       1 <0>        -0.7068
     18 N3          5.8160   -3.2892   -0.3665 N.pl3     1 <0>         0.2996
     19 O1          1.3773    2.1192   -2.7964 O.3       1 <0>        -0.6800
     20 F1         -0.2718    0.0664    2.6022 F         1 <0>        -0.1900
     21 H1          1.4260   -2.7653   -0.4708 H         1 <0>         0.1500
     22 H2          4.1554   -0.3580    1.8500 H         1 <0>         0.1500
     23 H3         -0.4752   -1.7460    0.7259 H         1 <0>         0.1500
     24 H4          2.2411    0.6506    3.0362 H         1 <0>         0.1500
     25 H5          3.2554   -3.4529   -3.6174 H         1 <0>         0.1500
     26 H6          3.7177    0.4279   -1.7828 H         1 <0>         0.1500
     27 H7          2.0288   -2.3259   -5.4647 H         1 <0>         0.1500
     28 H8          6.0586   -3.1376   -2.4836 H         1 <0>         0.1500
     29 H9          3.3098    2.3557   -3.4578 H         1 <0>         0.0000
     30 H10         2.0991    2.0920   -4.7232 H         1 <0>         0.0000
     31 H11         6.6268   -3.8313   -0.0954 H         1 <0>         0.2700
     32 H12         1.2433    3.0782   -2.8650 H         1 <0>         0.4000
@<TRIPOS>BOND
     1    1    3 ar
     2    1    9 ar
     3    2    4 ar
     4    2    9 ar
     5    3   12 ar
     6    4   12 ar
     7    5    7 ar
     8    5   10 ar
     9    6   10 ar
    10    6   14 ar
    11    7   16 ar
    12    8   11 2
    13    8   18 1
    14    9   13 1
    15   10   11 1
    16   11   13 1
    17   12   20 1
    18   13   17 2
    19   14   15 1
    20   14   16 ar
    21   15   19 1
    22   17   18 1
    23    1   21 1
    24    2   22 1
    25    3   23 1
    26    4   24 1
    27    5   25 1
    28    6   26 1
    29    7   27 1
    30    8   28 1
    31   15   29 1
    32   15   30 1
    33   18   31 1
    34   19   32 1
@<TRIPOS>MOLECULE
4KBK_1
   45    48     0     0     0
SMALL
USER_CHARGES

@<TRIPOS>ATOM
      1 C1          0.4496    7.7021   -3.6387 C.ar      1 <0>        -0.1500
      2 C2          2.3387    7.3962   -2.1639 C.ar      1 <0>        -0.1500
      3 C3         -0.1732    8.4965   -2.6761 C.ar      1 <0>        -0.1500
      4 C4          1.7158    8.1907   -1.2013 C.ar      1 <0>        -0.1500
      5 C5         -0.2209    4.1437   -5.7437 C.ar      1 <0>        -0.1500
      6 C6          0.3832    3.8845   -3.4302 C.ar      1 <0>        -0.1500
      7 C7         -1.3664    3.4136   -5.4705 C.ar      1 <0>         0.1600
      8 C8          2.8414    4.7466   -5.8201 C.2       1 <0>        -0.3016
      9 C9          1.7056    7.1519   -3.3825 C.ar      1 <0>         0.0540
     10 C10         0.6654    4.3792   -4.6986 C.ar      1 <0>         0.0540
     11 C11         1.8684    5.1284   -4.9290 C.2       1 <0>        -0.0540
     12 C12         0.4598    8.7409   -1.4574 C.ar      1 <0>         0.1900
     13 C13         2.3490    6.3309   -4.3770 C.2       1 <0>         0.2348
     14 C14        -0.7894    3.1662   -3.2605 C.ar      1 <0>         0.1665
     15 C15        -2.1745    0.7439   -0.6096 C.3       1 <0>         0.5030
     16 C16        -2.9793    1.7882    0.1411 C.3       1 <0>         0.2800
     17 C17        -1.9948    3.5653   -1.0646 C.3       1 <0>         0.2800
     18 C18        -1.1292    2.6130   -1.8966 C.3       1 <0>         0.6465
     19 C19         5.0368    5.7414   -6.5067 C.3       1 <0>         0.2556
     20 N1         -1.6746    2.9171   -4.2515 N.ar      1 <0>        -0.6200
     21 N2          3.5352    6.6893   -4.8755 N.2       1 <0>        -0.7068
     22 N3          3.8082    5.7061   -5.7501 N.pl3     1 <0>         0.3140
     23 N4         -1.8512    1.2882   -1.9641 N.4       1 <0>        -0.9060
     24 O1         -2.2469    3.0120    0.2309 O.3       1 <0>        -0.5600
     25 F1         -0.1384    9.5038   -0.5331 F         1 <0>        -0.1900
     26 H1         -0.0574    7.5206   -4.5834 H         1 <0>         0.1500
     27 H2          3.3179    6.9750   -1.9489 H         1 <0>         0.1500
     28 H3         -1.1514    8.9243   -2.8751 H         1 <0>         0.1500
     29 H4          2.2081    8.3817   -0.2523 H         1 <0>         0.1500
     30 H5         -0.0359    4.5145   -6.7468 H         1 <0>         0.1500
     31 H6          1.0579    4.0532   -2.5958 H         1 <0>         0.1500
     32 H7         -2.0902    3.2028   -6.2507 H         1 <0>         0.1500
     33 H8          2.9302    3.8963   -6.4835 H         1 <0>         0.1500
     34 H9         -1.2184    0.5332   -0.1198 H         1 <0>         0.0000
     35 H10        -2.7339   -0.1840   -0.7552 H         1 <0>         0.0000
     36 H11        -3.9510    1.9724   -0.3326 H         1 <0>         0.0000
     37 H12        -3.1713    1.4431    1.1620 H         1 <0>         0.0000
     38 H13        -1.4710    4.5163   -0.9150 H         1 <0>         0.0000
     39 H14        -2.9480    3.7982   -1.5568 H         1 <0>         0.0000
     40 H15        -0.1792    2.3947   -1.3633 H         1 <0>         0.0000
     41 H16         4.8457    6.2864   -7.4350 H         1 <0>         0.0000
     42 H17         5.8111    6.2443   -5.9206 H         1 <0>         0.0000
     43 H18         5.3583    4.7185   -6.7219 H         1 <0>         0.0000
     44 H19        -1.2707    0.6305   -2.4440 H         1 <0>         0.4500
     45 H20        -2.7037    1.4129   -2.4717 H         1 <0>         0.4500
@<TRIPOS>BOND
     1    1    3 ar
     2    1    9 ar
     3    2    4 ar
     4    2    9 ar
     5    3   12 ar
     6    4   12 ar
     7    5    7 ar
     8    5   10 ar
     9    6   10 ar
    10    6   14 ar
    11    7   20 ar
    12    8   11 2
    13    8   22 1
    14    9   13 1
    15   10   11 1
    16   11   13 1
    17   12   25 1
    18   13   21 2
    19   14   18 1
    20   14   20 ar
    21   15   16 1
    22   15   23 1
    23   16   24 1
    24   17   18 1
    25   17   24 1
    26   18   23 1
    27   19   22 1
    28   21   22 1
    29    1   26 1
    30    2   27 1
    31    3   28 1
    32    4   29 1
    33    5   30 1
    34    6   31 1
    35    7   32 1
    36    8   33 1
    37   15   34 1
    38   15   35 1
    39   16   36 1
    40   16   37 1
    41   17   38 1
    42   17   39 1
    43   18   40 1
    44   19   41 1
    45   19   42 1
    46   19   43 1
    47   23   44 1
    48   23   45 1
@<TRIPOS>MOLECULE
4TN6_1
   54    58     0     0     0
SMALL
USER_CHARGES

@<TRIPOS>ATOM
      1 C1         -4.0008   -0.9000    4.7542 C.ar      1 <0>        -0.1500
      2 C2         -3.3140    1.4161    4.7865 C.ar      1 <0>        -0.1500
      3 C3         -5.2160   -0.5479    5.3413 C.ar      1 <0>        -0.1500
      4 C4         -4.5293    1.7683    5.3736 C.ar      1 <0>        -0.1500
      5 C5         -3.4880   -0.4280    1.0773 C.ar      1 <0>        -0.1500
      6 C6          5.4625   -1.5307   -2.3631 C.2       1 <0>        -0.1500
      7 C7         -4.3644   -0.9683    0.1583 C.ar      1 <0>         0.1600
      8 C8          6.6403   -0.9287   -2.0072 C.2       1 <0>        -0.0100
      9 C9          0.2968   -0.5217    3.6155 C.2       1 <0>         0.0365
     10 C10        -3.0497    0.0819    4.4768 C.ar      1 <0>         0.0540
     11 C11        -5.4803    0.7862    5.6510 C.ar      1 <0>         0.1900
     12 C12        -2.6197   -1.3212    1.6708 C.ar      1 <0>         0.3630
     13 C13        -1.8020   -0.2797    3.8742 C.2       1 <0>         0.1732
     14 C14        -1.6504   -0.8906    2.6518 C.2       1 <0>        -0.2046
     15 C15         5.0373   -2.1588   -1.1798 C.2       1 <0>         0.1078
     16 C16        -3.5024   -3.0464    0.4827 C.ar      1 <0>         0.7200
     17 C17         1.3151   -0.5975    0.7076 C.3       1 <0>         0.0000
     18 C18         1.1886   -2.8682    1.8275 C.3       1 <0>         0.0000
     19 C19         2.1130   -1.2182   -0.4316 C.3       1 <0>         0.5030
     20 C20         1.9886   -3.4657    0.6774 C.3       1 <0>         0.5030
     21 C21         0.3966   -1.6313    1.3769 C.3       1 <0>         0.2556
     22 C22         3.7973   -2.9763   -0.9676 C.3       1 <0>         0.6840
     23 N1         -4.3992   -2.2779   -0.1643 N.ar      1 <0>        -0.6200
     24 N2         -0.5861   -0.0525    4.4689 N.2       1 <0>        -0.5653
     25 N3         -2.5993   -2.6421    1.3962 N.ar      1 <0>        -0.6200
     26 N4          5.8863   -1.9615   -0.1674 N.2       1 <0>        -0.4097
     27 N5         -0.3006   -1.0387    2.4997 N.pl3     1 <0>         0.0476
     28 N6         -3.5094   -4.4233    0.1691 N.pl3     1 <0>        -0.9000
     29 N7          2.8886   -2.4061    0.0868 N.4       1 <0>        -0.9590
     30 O1          6.9040   -1.1786   -0.6991 O.3       1 <0>        -0.0191
     31 F1         -6.6474    1.1243    6.2148 F         1 <0>        -0.1900
     32 H1         -3.8098   -1.9445    4.5194 H         1 <0>         0.1500
     33 H2         -2.5832    2.1935    4.5763 H         1 <0>         0.1500
     34 H3         -5.9563   -1.3124    5.5580 H         1 <0>         0.1500
     35 H4         -4.7360    2.8068    5.6148 H         1 <0>         0.1500
     36 H5         -3.4933    0.6300    1.3081 H         1 <0>         0.1500
     37 H6          4.9872   -1.5150   -3.3326 H         1 <0>         0.1500
     38 H7         -5.0854   -0.3443   -0.3588 H         1 <0>         0.1500
     39 H8          7.3679   -0.3248   -2.5285 H         1 <0>         0.1500
     40 H9          1.3698   -0.5141    3.7496 H         1 <0>         0.1500
     41 H10         2.0036   -0.1686    1.4482 H         1 <0>         0.0000
     42 H11         0.7182    0.2380    0.3216 H         1 <0>         0.0000
     43 H12         0.5027   -3.6255    2.2262 H         1 <0>         0.0000
     44 H13         1.8670   -2.6034    2.6495 H         1 <0>         0.0000
     45 H14         1.4630   -1.5712   -1.2400 H         1 <0>         0.0000
     46 H15         2.8371   -0.5002   -0.8302 H         1 <0>         0.0000
     47 H16         2.6282   -4.2791    1.0355 H         1 <0>         0.0000
     48 H17         1.3384   -3.8355   -0.1233 H         1 <0>         0.0000
     49 H18        -0.3890   -1.9338    0.6746 H         1 <0>         0.0000
     50 H19         3.2068   -3.0460   -1.8874 H         1 <0>         0.0000
     51 H20         4.0448   -3.9956   -0.6519 H         1 <0>         0.0000
     52 H21        -4.1943   -4.7732   -0.4686 H         1 <0>         0.4000
     53 H22        -2.8926   -5.0367    0.6606 H         1 <0>         0.4000
     54 H23         3.4721   -2.0729    0.8275 H         1 <0>         0.4500
@<TRIPOS>BOND
     1    1    3 ar
     2    1   10 ar
     3    2    4 ar
     4    2   10 ar
     5    3   11 ar
     6    4   11 ar
     7    5    7 ar
     8    5   12 ar
     9    6    8 2
    10    6   15 1
    11    7   23 ar
    12    8   30 1
    13    9   24 2
    14    9   27 1
    15   10   13 1
    16   11   31 1
    17   12   14 1
    18   12   25 ar
    19   13   14 2
    20   13   24 1
    21   14   27 1
    22   15   22 1
    23   15   26 2
    24   16   23 ar
    25   16   25 ar
    26   16   28 1
    27   17   19 1
    28   17   21 1
    29   18   20 1
    30   18   21 1
    31   19   29 1
    32   20   29 1
    33   21   27 1
    34   22   29 1
    35   26   30 1
    36    1   32 1
    37    2   33 1
    38    3   34 1
    39    4   35 1
    40    5   36 1
    41    6   37 1
    42    7   38 1
    43    8   39 1
    44    9   40 1
    45   17   41 1
    46   17   42 1
    47   18   43 1
    48   18   44 1
    49   19   45 1
    50   19   46 1
    51   20   47 1
    52   20   48 1
    53   21   49 1
    54   22   50 1
    55   22   51 1
    56   28   52 1
    57   28   53 1
    58   29   54 1
@<TRIPOS>MOLECULE
4TW9_1
   45    49     0     0     0
SMALL
USER_CHARGES

@<TRIPOS>ATOM
      1 C1        -10.4935   -9.1286    3.3436 C.ar      1 <0>        -0.1500
      2 C2        -10.1780  -10.4267    3.7447 C.ar      1 <0>        -0.1500
      3 C3         -9.4757   -8.2351    3.0094 C.ar      1 <0>        -0.1500
      4 C4         -8.8449  -10.8314    3.8117 C.ar      1 <0>        -0.1500
      5 C5         -3.1430   -5.2638    4.4194 C.2       1 <0>        -0.1100
      6 C6         -8.1426   -8.6398    3.0765 C.ar      1 <0>         0.0862
      7 C7         -7.8271   -9.9380    3.4776 C.ar      1 <0>         0.0825
      8 C8         -3.5766   -5.0339    3.1305 C.2       1 <0>         0.1412
      9 C9         -5.0805   -6.5154    3.7249 C.2       1 <0>         0.4421
     10 C10        -2.1200   -4.7531   -3.5328 C.ar      1 <0>        -0.1356
     11 C11         0.1696   -5.3399   -1.7464 C.ar      1 <0>        -0.1356
     12 C12        -0.9140   -5.1617   -3.9435 C.ar      1 <0>         0.0767
     13 C13         0.1927   -5.4453   -3.0801 C.ar      1 <0>         0.0767
     14 C14        -2.2664   -4.6003   -2.0816 C.ar      1 <0>         0.4356
     15 C15        -1.1075   -4.8973   -1.1774 C.ar      1 <0>         0.4356
     16 C16        -2.7784   -4.2922   -0.0805 C.cat     1 <0>         0.8220
     17 C17        -7.0836   -7.6803    2.7193 C.2       1 <0>         0.5438
     18 C18        -2.9178   -4.0812    2.1903 C.2       1 <0>         0.9850
     19 C19         0.7900   -5.7843   -5.1445 C.3       1 <0>         1.2400
     20 C20        -6.0329  -10.7934    4.8049 C.3       1 <0>         1.3000
     21 N1         -4.6872   -5.7510    2.7304 N.2       1 <0>        -0.5653
     22 N2         -3.2755   -4.2312   -1.3688 N.2       1 <0>        -0.6610
     23 N3         -1.4625   -4.6956    0.0457 N.2       1 <0>        -0.6610
     24 N4         -3.5003   -3.9904    0.9442 N.am      1 <0>        -0.1290
     25 N5         -6.1414   -7.3816    3.7466 N.am      1 <0>        -0.4940
     26 O1         -7.0532   -7.1563    1.6079 O.2       1 <0>        -0.5700
     27 O2         -1.9307   -3.4599    2.5748 O.2       1 <0>        -0.5700
     28 O3         -0.5699   -5.3659   -5.2552 O.3       1 <0>        -0.3567
     29 O4          1.2856   -5.8418   -3.8075 O.3       1 <0>        -0.3567
     30 O5         -6.5306  -10.3527    3.5475 O.3       1 <0>        -0.3625
     31 F1          0.9127   -7.0129   -5.7057 F         1 <0>        -0.3400
     32 F2          1.5657   -4.9305   -5.8580 F         1 <0>        -0.3400
     33 F3         -6.6544  -10.1608    5.8228 F         1 <0>        -0.3400
     34 F4         -4.7143  -10.5015    4.8764 F         1 <0>        -0.3400
     35 F5         -6.1710  -12.1292    4.9419 F         1 <0>        -0.3400
     36 S1         -4.1609   -6.4217    5.1708 S.3       1 <0>        -0.0800
     37 H1        -11.5319   -8.8137    3.2915 H         1 <0>         0.1500
     38 H2        -10.9709  -11.1217    4.0053 H         1 <0>         0.1500
     39 H3         -9.7334   -7.2261    2.6977 H         1 <0>         0.1500
     40 H4         -8.6060  -11.8442    4.1249 H         1 <0>         0.1500
     41 H5         -2.3064   -4.8251    4.9450 H         1 <0>         0.1500
     42 H6         -2.9474   -4.5429   -4.1955 H         1 <0>         0.1500
     43 H7          1.0127   -5.5586   -1.1063 H         1 <0>         0.1500
     44 H8         -6.2790   -7.8936    4.6387 H         1 <0>         0.3700
     45 H9         -4.4514   -3.7000    0.8385 H         1 <0>         0.4000
@<TRIPOS>BOND
     1    1    2 ar
     2    1    3 ar
     3    2    4 ar
     4    3    6 ar
     5    4    7 ar
     6    5    8 2
     7    5   36 1
     8    6    7 ar
     9    6   17 1
    10    7   30 1
    11    8   18 1
    12    8   21 1
    13    9   21 2
    14    9   25 1
    15    9   36 1
    16   10   12 ar
    17   10   14 ar
    18   11   13 ar
    19   11   15 ar
    20   12   13 ar
    21   12   28 1
    22   13   29 1
    23   14   15 ar
    24   14   22 2
    25   15   23 2
    26   16   22 1
    27   16   23 1
    28   16   24 2
    29   17   25 am
    30   17   26 2
    31   18   24 am
    32   18   27 2
    33   19   28 1
    34   19   29 1
    35   19   31 1
    36   19   32 1
    37   20   30 1
    38   20   33 1
    39   20   34 1
    40   20   35 1
    41    1   37 1
    42    2   38 1
    43    3   39 1
    44    4   40 1
    45    5   41 1
    46   10   42 1
    47   11   43 1
    48   25   44 1
    49   24   45 1
@<TRIPOS>MOLECULE
4TWC_1
   46    49     0     0     0
SMALL
USER_CHARGES

@<TRIPOS>ATOM
      1 C1          0.2302    1.7278   14.5700 C.ar      1 <0>        -0.1500
      2 C2         -0.6330    0.9148   15.3046 C.ar      1 <0>        -0.1500
      3 C3          0.6939    1.3061   13.3239 C.ar      1 <0>        -0.1500
      4 C4          2.2441    0.7618    0.9690 C.ar      1 <0>        -0.1500
      5 C5          1.8431    1.0322    2.2834 C.ar      1 <0>        -0.1500
      6 C6         -1.0323   -0.3199   14.7931 C.ar      1 <0>        -0.1500
      7 C7          3.3510   -1.2965    1.6573 C.ar      1 <0>        -0.1500
      8 C8          3.4304   -3.7867    9.1412 C.2       1 <0>        -0.1100
      9 C9          0.2945    0.0714   12.8123 C.ar      1 <0>         0.0862
     10 C10         2.9845   -0.3826    0.6637 C.ar      1 <0>        -0.1435
     11 C11         2.2024    0.1247    3.2942 C.ar      1 <0>         0.2272
     12 C12         2.9407   -1.0068    2.9590 C.ar      1 <0>        -0.1516
     13 C13        -0.5686   -0.7416   13.5469 C.ar      1 <0>         0.0825
     14 C14         2.9238   -2.7164    8.4342 C.2       1 <0>         0.1412
     15 C15         2.5013   -0.9311    5.1260 C.2       1 <0>         0.2505
     16 C16         2.1631   -2.1880   10.4221 C.2       1 <0>         0.4421
     17 C17         0.7962   -0.3545   11.4946 C.2       1 <0>         0.5438
     18 C18         3.1189   -2.5236    6.9870 C.2       1 <0>         0.7160
     19 C19         3.3950   -0.6370   -0.7499 C.3       1 <0>         1.1635
     20 C20        -0.6609   -3.1143   13.8194 C.3       1 <0>         1.3000
     21 N1          1.9390    0.1547    4.6445 N.2       1 <0>        -0.5653
     22 N2          2.1965   -1.7989    9.1669 N.2       1 <0>        -0.5653
     23 N3          3.1174   -1.6636    4.1498 N.pl3     1 <0>         0.0332
     24 N4          2.5206   -1.3569    6.4286 N.am      1 <0>        -0.4940
     25 N5          1.5484   -1.5653   11.4760 N.am      1 <0>        -0.4940
     26 O1          0.5947    0.3259   10.4909 O.2       1 <0>        -0.5700
     27 O2          3.7352   -3.3488    6.3162 O.2       1 <0>        -0.5700
     28 O3         -0.9717   -1.9505   13.0632 O.3       1 <0>        -0.3625
     29 F1          2.9771    0.3275   -1.6208 F         1 <0>        -0.3400
     30 F2          4.7474   -0.7106   -0.9191 F         1 <0>        -0.3400
     31 F3          2.8987   -1.8111   -1.2351 F         1 <0>        -0.3400
     32 F4          0.4834   -2.9502   14.5166 F         1 <0>        -0.3400
     33 F5         -0.4850   -4.1507   12.9684 F         1 <0>        -0.3400
     34 F6         -1.6686   -3.4326   14.6593 F         1 <0>        -0.3400
     35 S1          2.9859   -3.6479   10.7918 S.3       1 <0>        -0.0800
     36 H1          0.5410    2.6893   14.9687 H         1 <0>         0.1500
     37 H2         -0.9932    1.2434   16.2750 H         1 <0>         0.1500
     38 H3          1.3659    1.9482   12.7601 H         1 <0>         0.1500
     39 H4          1.9692    1.4596    0.1811 H         1 <0>         0.1500
     40 H5          1.2676    1.9238    2.5109 H         1 <0>         0.1500
     41 H6         -1.7050   -0.9484   15.3704 H         1 <0>         0.1500
     42 H7          3.9265   -2.1876    1.4308 H         1 <0>         0.1500
     43 H8          4.0219   -4.6189    8.7860 H         1 <0>         0.1500
     44 H9          3.6144   -2.5341    4.2831 H         1 <0>         0.2700
     45 H10         2.0295   -0.7422    7.1046 H         1 <0>         0.3700
     46 H11         1.6440   -2.0434   12.3920 H         1 <0>         0.3700
@<TRIPOS>BOND
     1    1    2 ar
     2    1    3 ar
     3    2    6 ar
     4    3    9 ar
     5    4    5 ar
     6    4   10 ar
     7    5   11 ar
     8    6   13 ar
     9    7   10 ar
    10    7   12 ar
    11    8   14 2
    12    8   35 1
    13    9   13 ar
    14    9   17 1
    15   10   19 1
    16   11   12 ar
    17   11   21 1
    18   12   23 1
    19   13   28 1
    20   14   18 1
    21   14   22 1
    22   15   21 2
    23   15   23 1
    24   15   24 1
    25   16   22 2
    26   16   25 1
    27   16   35 1
    28   17   25 am
    29   17   26 2
    30   18   24 am
    31   18   27 2
    32   19   29 1
    33   19   30 1
    34   19   31 1
    35   20   28 1
    36   20   32 1
    37   20   33 1
    38   20   34 1
    39    1   36 1
    40    2   37 1
    41    3   38 1
    42    4   39 1
    43    5   40 1
    44    6   41 1
    45    7   42 1
    46    8   43 1
    47   23   44 1
    48   24   45 1
    49   25   46 1
@<TRIPOS>MOLECULE
5IH6_1
   30    32     0     0     0
SMALL
USER_CHARGES

@<TRIPOS>ATOM
      1 C1         -3.7437   -1.8249   -1.8855 C.ar      1 <0>        -0.1500
      2 C2         -2.6009   -2.0179   -1.1094 C.ar      1 <0>        -0.1500
      3 C3         -3.6253   -1.3839   -3.2036 C.ar      1 <0>        -0.1500
      4 C4         -1.2213   -1.3289   -2.9693 C.ar      1 <0>        -0.1500
      5 C5         -1.3397   -1.7698   -1.6512 C.ar      1 <0>         0.0000
      6 C6          1.4765   -3.4392   -0.1845 C.ar      1 <0>         0.3100
      7 C7         -2.3641   -1.1359   -3.7454 C.ar      1 <0>         0.1110
      8 C8         -0.1570   -1.9697   -0.8476 C.ar      1 <0>         0.3100
      9 C9          2.0657   -2.4584    0.6163 C.ar      1 <0>         0.6200
     10 C10         2.0963   -4.6742   -0.1848 C.ar      1 <0>         0.4100
     11 C11         0.4101   -0.9996   -0.0674 C.ar      1 <0>         0.4100
     12 C12         3.6785   -3.9615    1.2514 C.ar      1 <0>         0.7200
     13 N1          0.3702   -3.2020   -0.9153 N.ar      1 <0>        -0.6200
     14 N2          1.5164   -1.2388    0.6629 N.ar      1 <0>        -0.6200
     15 N3          3.1654   -2.7196    1.3333 N.ar      1 <0>        -0.6200
     16 N4          3.2012   -4.9756    0.5210 N.ar      1 <0>        -0.6200
     17 N5          1.5308   -5.7015   -0.9840 N.pl3     1 <0>        -0.9000
     18 N6         -0.1676    0.2884   -0.0157 N.pl3     1 <0>        -0.9000
     19 N7          4.8385   -4.2182    2.0138 N.pl3     1 <0>        -0.9000
     20 Br1        -2.2044   -0.5369   -5.5311 Br        1 <0>        -0.1110
     21 H1         -4.7257   -2.0177   -1.4638 H         1 <0>         0.1500
     22 H2         -2.7096   -2.3633   -0.0841 H         1 <0>         0.1500
     23 H3         -4.5260   -1.2386   -3.7949 H         1 <0>         0.1500
     24 H4         -0.2368   -1.1356   -3.3911 H         1 <0>         0.1500
     25 H5          0.6861   -5.5147   -1.4771 H         1 <0>         0.4000
     26 H6          1.9395   -6.6091   -0.9570 H         1 <0>         0.4000
     27 H7         -0.9603    0.4885   -0.5896 H         1 <0>         0.4000
     28 H8          0.2824    1.0011    0.5203 H         1 <0>         0.4000
     29 H9          5.2528   -3.4732    2.5353 H         1 <0>         0.4000
     30 H10         5.2779   -5.1131    1.9445 H         1 <0>         0.4000
@<TRIPOS>BOND
     1    1    2 ar
     2    1    3 ar
     3    2    5 ar
     4    3    7 ar
     5    4    5 ar
     6    4    7 ar
     7    5    8 1
     8    6    9 ar
     9    6   10 ar
    10    6   13 ar
    11    7   20 1
    12    8   11 ar
    13    8   13 ar
    14    9   14 ar
    15    9   15 ar
    16   10   16 ar
    17   10   17 1
    18   11   14 ar
    19   11   18 1
    20   12   15 ar
    21   12   16 ar
    22   12   19 1
    23    1   21 1
    24    2   22 1
    25    3   23 1
    26    4   24 1
    27   17   25 1
    28   17   26 1
    29   18   27 1
    30   18   28 1
    31   19   29 1
    32   19   30 1
@<TRIPOS>MOLECULE
5MQV_1
   65    69     0     0     0
SMALL
USER_CHARGES

@<TRIPOS>ATOM
      1 C1          5.9795   -0.6393   -2.9326 C.ar      1 <0>        -0.1500
      2 C2          7.3897   -2.5999   -2.8671 C.ar      1 <0>        -0.1500
      3 C3         16.0199    4.1193    3.9056 C.ar      1 <0>        -0.1500
      4 C4         14.9447    4.7233    3.2540 C.ar      1 <0>        -0.1500
      5 C5          6.7264   -0.1376   -3.9985 C.ar      1 <0>        -0.1500
      6 C6          8.1366   -2.0983   -3.9331 C.ar      1 <0>        -0.1500
      7 C7          5.0064    0.4665    0.8734 C.ar      1 <0>        -0.1500
      8 C8         15.2871    1.9583    3.1120 C.ar      1 <0>        -0.1500
      9 C9         11.8999    1.5653    1.8956 C.2       1 <0>        -0.1500
     10 C10         7.2463   -0.3424    0.5373 C.ar      1 <0>        -0.1500
     11 C11         5.5606    1.6529    1.3265 C.ar      1 <0>         0.1600
     12 C12        13.6812    0.9604    0.6584 C.2       1 <0>        -0.3016
     13 C13         6.3112   -1.8704   -2.3669 C.ar      1 <0>         0.0540
     14 C14         5.8722   -0.5451    0.4731 C.ar      1 <0>         0.0530
     15 C15        14.2118    2.5623    2.4603 C.ar      1 <0>         0.0540
     16 C16        13.2945    1.7446    1.7227 C.2       1 <0>        -0.0540
     17 C17        16.1912    2.7368    3.8346 C.ar      1 <0>         0.0825
     18 C18        14.0406    3.9448    2.5313 C.ar      1 <0>         0.0825
     19 C19         7.8049   -0.8672   -4.4988 C.ar      1 <0>         0.1900
     20 C20         5.3345   -1.8295   -0.0175 C.2       1 <0>        -0.2046
     21 C21         5.5251   -2.3994   -1.2445 C.2       1 <0>         0.1732
     22 C22        11.4768    0.6768    0.9317 C.2       1 <0>        -0.2366
     23 C23         7.7002    0.8802    1.0053 C.ar      1 <0>         0.4270
     24 C24         4.2347   -3.7502   -0.0568 C.2       1 <0>         0.2425
     25 C25        10.1087    0.1791    0.7081 C.2       1 <0>         0.7150
     26 C26        12.5637   -0.6030   -0.9315 C.3       1 <0>         0.2556
     27 C27        18.1289    3.0052    5.1870 C.3       1 <0>         0.2800
     28 C28        13.2156    4.9963    0.5642 C.3       1 <0>         0.2800
     29 C29         3.3011   -6.1124   -1.0872 C.3       1 <0>         0.2300
     30 N1          6.8899    1.8866    1.4030 N.ar      1 <0>        -0.6200
     31 N2          4.5320   -2.6864    0.6965 N.pl3     1 <0>         0.0332
     32 N3         12.5682    0.3157    0.1856 N.pl3     1 <0>         0.0476
     33 N4          4.8337   -3.5868   -1.2408 N.2       1 <0>        -0.5653
     34 N5          9.0854    1.0754    1.0657 N.am      1 <0>        -0.5470
     35 O1          9.9106   -0.9532    0.2727 O.2       1 <0>        -0.5700
     36 O2         17.2422    2.1488    4.4687 O.3       1 <0>        -0.3625
     37 O3         12.9985    4.5620    1.9046 O.3       1 <0>        -0.3625
     38 F1          8.5209   -0.3869   -5.5237 F         1 <0>        -0.1900
     39 S1          3.2311   -5.1245    0.4260 S.3       1 <0>        -0.2860
     40 H1          5.1412   -0.0597   -2.5534 H         1 <0>         0.1500
     41 H2          7.6609   -3.5608   -2.4365 H         1 <0>         0.1500
     42 H3         16.7217    4.7320    4.4652 H         1 <0>         0.1500
     43 H4         14.8174    5.8009    3.3126 H         1 <0>         0.1500
     44 H5          6.4686    0.8209   -4.4388 H         1 <0>         0.1500
     45 H6          8.9761   -2.6663   -4.3231 H         1 <0>         0.1500
     46 H7          3.9288    0.3443    0.8384 H         1 <0>         0.1500
     47 H8         15.4319    0.8811    3.0610 H         1 <0>         0.1500
     48 H9         11.2717    2.0335    2.6420 H         1 <0>         0.1500
     49 H10         7.9415   -1.1181    0.2291 H         1 <0>         0.1500
     50 H11         4.9288    2.4725    1.6527 H         1 <0>         0.1500
     51 H12        14.6486    0.8055    0.1976 H         1 <0>         0.1500
     52 H13        12.7449   -1.6083   -0.5422 H         1 <0>         0.0000
     53 H14        11.5948   -0.5574   -1.4365 H         1 <0>         0.0000
     54 H15        13.3490   -0.3177   -1.6371 H         1 <0>         0.0000
     55 H16        18.9218    2.4087    5.6446 H         1 <0>         0.0000
     56 H17        17.5721    3.5436    5.9580 H         1 <0>         0.0000
     57 H18        18.5711    3.7227    4.4917 H         1 <0>         0.0000
     58 H19        12.3083    5.4709    0.1827 H         1 <0>         0.0000
     59 H20        13.4808    4.1387   -0.0592 H         1 <0>         0.0000
     60 H21        14.0346    5.7195    0.5531 H         1 <0>         0.0000
     61 H22         2.7165   -7.0269   -0.9614 H         1 <0>         0.0000
     62 H23         4.3375   -6.3795   -1.3082 H         1 <0>         0.0000
     63 H24         2.8934   -5.5396   -1.9236 H         1 <0>         0.0000
     64 H25         4.2115   -2.5401    1.6500 H         1 <0>         0.2700
     65 H26         9.3930    1.9879    1.4150 H         1 <0>         0.3700
@<TRIPOS>BOND
     1    1    5 ar
     2    1   13 ar
     3    2    6 ar
     4    2   13 ar
     5    3    4 ar
     6    3   17 ar
     7    4   18 ar
     8    5   19 ar
     9    6   19 ar
    10    7   11 ar
    11    7   14 ar
    12    8   15 ar
    13    8   17 ar
    14    9   16 1
    15    9   22 2
    16   10   14 ar
    17   10   23 ar
    18   11   30 ar
    19   12   16 2
    20   12   32 1
    21   13   21 1
    22   14   20 1
    23   15   16 1
    24   15   18 ar
    25   17   36 1
    26   18   37 1
    27   19   38 1
    28   20   21 2
    29   20   31 1
    30   21   33 1
    31   22   25 1
    32   22   32 1
    33   23   30 ar
    34   23   34 1
    35   24   31 1
    36   24   33 2
    37   24   39 1
    38   25   34 am
    39   25   35 2
    40   26   32 1
    41   27   36 1
    42   28   37 1
    43   29   39 1
    44    1   40 1
    45    2   41 1
    46    3   42 1
    47    4   43 1
    48    5   44 1
    49    6   45 1
    50    7   46 1
    51    8   47 1
    52    9   48 1
    53   10   49 1
    54   11   50 1
    55   12   51 1
    56   26   52 1
    57   26   53 1
    58   26   54 1
    59   27   55 1
    60   27   56 1
    61   27   57 1
    62   28   58 1
    63   28   59 1
    64   28   60 1
    65   29   61 1
    66   29   62 1
    67   29   63 1
    68   31   64 1
    69   34   65 1
@<TRIPOS>MOLECULE
5W4W_1
   39    42     0     0     0
SMALL
USER_CHARGES

@<TRIPOS>ATOM
      1 C1         -2.6079    1.9181   -0.1213 C.ar      1 <0>        -0.1500
      2 C2         -1.2208    3.1099   -1.7001 C.ar      1 <0>        -0.1500
      3 C3         -3.7476    2.4712   -0.7050 C.ar      1 <0>        -0.1500
      4 C4         -2.3606    3.6630   -2.2839 C.ar      1 <0>        -0.1500
      5 C5         -1.4349   -1.5114    0.5289 C.ar      1 <0>        -0.1500
      6 C6         -2.0905   -2.6660    0.0890 C.ar      1 <0>         0.1600
      7 C7          1.3676    0.2850    0.7413 C.2       1 <0>        -0.3016
      8 C8         -1.3445    2.2374   -0.6188 C.ar      1 <0>         0.0540
      9 C9         -0.5325   -0.8851   -0.3267 C.ar      1 <0>         0.0540
     10 C10         0.1558    0.3003    0.0949 C.2       1 <0>        -0.0540
     11 C11        -0.3498   -1.4592   -1.5646 C.ar      1 <0>         0.0862
     12 C12        -3.6239    3.3436   -1.7863 C.ar      1 <0>         0.1900
     13 C13        -0.1669    1.6661   -0.0156 C.2       1 <0>         0.2348
     14 C14        -1.0413   -2.6069   -1.9223 C.ar      1 <0>         0.1665
     15 C15         0.5098   -1.0596   -2.6808 C.2       1 <0>         0.5438
     16 C16        -0.6684   -3.0282   -3.3097 C.3       1 <0>         0.4436
     17 C17         2.8724    2.0830    1.6266 C.3       1 <0>         0.2556
     18 C18         0.9394   -2.0066   -4.9795 C.3       1 <0>         0.3001
     19 N1         -1.9174   -3.2399   -1.1288 N.ar      1 <0>        -0.6200
     20 N2          0.7645    2.4608    0.5182 N.2       1 <0>        -0.7068
     21 N3          1.6845    1.5917    0.9703 N.pl3     1 <0>         0.3140
     22 N4          0.2969   -2.0007   -3.6831 N.am      1 <0>        -0.6602
     23 O1          1.2451   -0.0895   -2.6815 O.2       1 <0>        -0.5700
     24 F1         -4.7185    3.8747   -2.3468 F         1 <0>        -0.1900
     25 H1         -2.7211    1.2401    0.7214 H         1 <0>         0.1500
     26 H2         -0.2432    3.3686   -2.1000 H         1 <0>         0.1500
     27 H3         -4.7312    2.2233   -0.3172 H         1 <0>         0.1500
     28 H4         -2.2652    4.3420   -3.1260 H         1 <0>         0.1500
     29 H5         -1.6382   -1.1248    1.5233 H         1 <0>         0.1500
     30 H6         -2.7987   -3.1739    0.7367 H         1 <0>         0.1500
     31 H7          2.0186   -0.5216    1.0522 H         1 <0>         0.1500
     32 H8         -0.1824   -4.0075   -3.3205 H         1 <0>         0.0000
     33 H9         -1.5235   -2.9911   -3.9898 H         1 <0>         0.0000
     34 H10         3.6390    2.2399    0.8633 H         1 <0>         0.0000
     35 H11         2.6439    3.0225    2.1376 H         1 <0>         0.0000
     36 H12         3.2089    1.3477    2.3627 H         1 <0>         0.0000
     37 H13         1.8704   -2.5900   -4.9253 H         1 <0>         0.0000
     38 H14         0.2651   -2.4604   -5.7207 H         1 <0>         0.0000
     39 H15         1.1710   -0.9736   -5.2784 H         1 <0>         0.0000
@<TRIPOS>BOND
     1    1    3 ar
     2    1    8 ar
     3    2    4 ar
     4    2    8 ar
     5    3   12 ar
     6    4   12 ar
     7    5    6 ar
     8    5    9 ar
     9    6   19 ar
    10    7   10 2
    11    7   21 1
    12    8   13 1
    13    9   10 1
    14    9   11 ar
    15   10   13 1
    16   11   14 ar
    17   11   15 1
    18   12   24 1
    19   13   20 2
    20   14   16 1
    21   14   19 ar
    22   15   22 am
    23   15   23 2
    24   16   22 1
    25   17   21 1
    26   18   22 1
    27   20   21 1
    28    1   25 1
    29    2   26 1
    30    3   27 1
    31    4   28 1
    32    5   29 1
    33    6   30 1
    34    7   31 1
    35   16   32 1
    36   16   33 1
    37   17   34 1
    38   17   35 1
    39   17   36 1
    40   18   37 1
    41   18   38 1
    42   18   39 1
@<TRIPOS>MOLECULE
6F26_pre_1
   81    87     0     0     0
SMALL
USER_CHARGES

@<TRIPOS>ATOM
      1 C1         -0.6229    3.8576   -3.7443 C.ar      1 <0>        -0.1500
      2 C2         -1.9447    1.8394   -3.8724 C.ar      1 <0>        -0.1500
      3 C3          6.9448   -4.1771   -1.3142 C.ar      1 <0>        -0.1500
      4 C4          6.5881   -3.1492    0.8429 C.ar      1 <0>        -0.1500
      5 C5         -1.6188    4.5534   -4.4298 C.ar      1 <0>        -0.1500
      6 C6         -2.9407    2.5351   -4.5578 C.ar      1 <0>        -0.1500
      7 C7          5.8998   -5.0662   -1.0634 C.ar      1 <0>        -0.1500
      8 C8          5.5430   -4.0383    1.0938 C.ar      1 <0>        -0.1500
      9 C9          8.0178   -1.2042   -4.0714 C.ar      1 <0>        -0.1500
     10 C10         1.5940    1.5790   -3.1247 C.2       1 <0>        -0.1500
     11 C11         6.2980   -0.5977   -2.5034 C.ar      1 <0>        -0.1500
     12 C12         7.1296   -0.8861   -5.0862 C.ar      1 <0>         0.1600
     13 C13        -0.7859    2.5006   -3.4657 C.ar      1 <0>         0.0540
     14 C14         7.2890   -3.2186   -0.3610 C.ar      1 <0>         0.0540
     15 C15         7.5863   -1.0545   -2.7582 C.ar      1 <0>         0.0540
     16 C16         0.2384    1.7842   -2.7612 C.2       1 <0>        -0.0540
     17 C17         8.4679   -1.3723   -1.6704 C.2       1 <0>        -0.0540
     18 C18        -2.7777    3.8921   -4.8365 C.ar      1 <0>         0.0825
     19 C19         5.1989   -4.9969    0.1406 C.ar      1 <0>         0.1900
     20 C20         8.3680   -2.3008   -0.6199 C.2       1 <0>         0.2348
     21 C21         2.1826    0.8229   -2.1337 C.2       1 <0>        -0.2366
     22 C22         0.0305    1.1480   -1.5543 C.2       1 <0>        -0.3316
     23 C23         9.6750   -0.7626   -1.4525 C.2       1 <0>        -0.0400
     24 C24         5.4869   -0.3065   -3.5883 C.ar      1 <0>         0.4270
     25 C25         3.5426    0.3812   -2.0742 C.2       1 <0>         0.7150
     26 C26        -1.1905    1.0135   -0.7041 C.3       1 <0>         0.6830
     27 C27         1.4338   -0.1859    0.0461 C.3       1 <0>         0.2556
     28 C28        -1.9469    0.1777    1.6292 C.3       1 <0>         0.5030
     29 C29         0.1044   -0.6567    0.6180 C.3       1 <0>         0.5030
     30 C30        -1.4265   -1.0548    2.3765 C.3       1 <0>         0.2800
     31 C31         0.0725   -1.1143    2.0609 C.3       1 <0>         0.2800
     32 C32        11.7943   -0.1882   -2.6904 C.3       1 <0>         0.0000
     33 C33        10.6580    1.5507   -1.2621 C.3       1 <0>         0.0000
     34 C34        -3.5187    5.9560   -5.7568 C.3       1 <0>         0.2800
     35 C35        10.4299    0.2954   -2.1398 C.3       1 <0>         0.1800
     36 N1          5.8708   -0.4395   -4.8777 N.ar      1 <0>        -0.6200
     37 N2          9.4317   -2.2694    0.1877 N.2       1 <0>        -0.4097
     38 N3          1.2280    0.5661   -1.1893 N.pl3     1 <0>         0.0476
     39 N4          4.1754    0.1595   -3.3185 N.am      1 <0>        -0.5470
     40 N5         -0.8283    0.5361    0.6736 N.4       1 <0>        -0.9590
     41 O1          4.1356    0.1671   -0.9934 O.2       1 <0>        -0.5700
     42 O2         10.2598   -1.2894   -0.3464 O.3       1 <0>        -0.0191
     43 O3         -2.0974   -2.2009    1.8564 O.3       1 <0>        -0.6800
     44 O4          0.6044   -2.4151    2.2054 O.3       1 <0>        -0.6800
     45 O5         -3.7497    4.5708   -5.5051 O.3       1 <0>        -0.3625
     46 F1          4.1953   -5.8508    0.3814 F         1 <0>        -0.1900
     47 H1          0.2746    4.3872   -3.4338 H         1 <0>         0.1500
     48 H2         -2.0866    0.7817   -3.6632 H         1 <0>         0.1500
     49 H3          7.4819   -4.2446   -2.2574 H         1 <0>         0.1500
     50 H4          6.8437   -2.4075    1.5960 H         1 <0>         0.1500
     51 H5         -1.4867    5.6104   -4.6441 H         1 <0>         0.1500
     52 H6         -3.8406    2.0138   -4.8725 H         1 <0>         0.1500
     53 H7          5.6323   -5.8131   -1.8050 H         1 <0>         0.1500
     54 H8          4.9965   -3.9848    2.0307 H         1 <0>         0.1500
     55 H9          9.0154   -1.5586   -4.3099 H         1 <0>         0.1500
     56 H10         2.0892    1.9447   -4.0147 H         1 <0>         0.1500
     57 H11         5.9386   -0.4719   -1.4855 H         1 <0>         0.1500
     58 H12         7.4184   -0.9862   -6.1273 H         1 <0>         0.1500
     59 H13        -1.7021    1.9727   -0.5781 H         1 <0>         0.0000
     60 H14        -1.8808    0.2808   -1.1362 H         1 <0>         0.0000
     61 H15         1.9633    0.4816    0.7355 H         1 <0>         0.0000
     62 H16         2.0733   -1.0451   -0.1814 H         1 <0>         0.0000
     63 H17        -2.8556   -0.0125    1.0503 H         1 <0>         0.0000
     64 H18        -2.0735    1.0418    2.2874 H         1 <0>         0.0000
     65 H19        -0.3507   -1.4037   -0.0485 H         1 <0>         0.0000
     66 H20        -1.6248   -1.0074    3.4513 H         1 <0>         0.0000
     67 H21         0.6326   -0.4240    2.7035 H         1 <0>         0.0000
     68 H22        12.4315   -0.5767   -1.8885 H         1 <0>         0.0000
     69 H23        12.3451    0.6142   -3.1931 H         1 <0>         0.0000
     70 H24        11.6412   -0.9952   -3.4157 H         1 <0>         0.0000
     71 H25        11.2052    1.2781   -0.3528 H         1 <0>         0.0000
     72 H26         9.7156    2.0194   -0.9583 H         1 <0>         0.0000
     73 H27        11.2480    2.3056   -1.7934 H         1 <0>         0.0000
     74 H28        -4.3709    6.3761   -6.2966 H         1 <0>         0.0000
     75 H29        -2.6064    6.0728   -6.3472 H         1 <0>         0.0000
     76 H30        -3.4021    6.4760   -4.8030 H         1 <0>         0.0000
     77 H31         9.8732    0.6642   -3.0315 H         1 <0>         0.0000
     78 H32         3.6086    0.3636   -4.1379 H         1 <0>         0.3700
     79 H33        -3.0437   -2.0609    2.0140 H         1 <0>         0.4000
     80 H34         0.5536   -2.6444    3.1500 H         1 <0>         0.4000
     81 H35        -0.3140    1.2769    1.1057 H         1 <0>         0.4500
@<TRIPOS>BOND
     1    1    5 ar
     2    1   13 ar
     3    2    6 ar
     4    2   13 ar
     5    3    7 ar
     6    3   14 ar
     7    4    8 ar
     8    4   14 ar
     9    5   18 ar
    10    6   18 ar
    11    7   19 ar
    12    8   19 ar
    13    9   12 ar
    14    9   15 ar
    15   10   16 1
    16   10   21 2
    17   11   15 ar
    18   11   24 ar
    19   12   36 ar
    20   13   16 1
    21   14   20 1
    22   15   17 1
    23   16   22 2
    24   17   20 1
    25   17   23 2
    26   18   45 1
    27   19   46 1
    28   20   37 2
    29   21   25 1
    30   21   38 1
    31   22   26 1
    32   22   38 1
    33   23   35 1
    34   23   42 1
    35   24   36 ar
    36   24   39 1
    37   25   39 am
    38   25   41 2
    39   26   40 1
    40   27   29 1
    41   27   38 1
    42   28   30 1
    43   28   40 1
    44   29   31 1
    45   29   40 1
    46   30   31 1
    47   30   43 1
    48   31   44 1
    49   32   35 1
    50   33   35 1
    51   34   45 1
    52   37   42 1
    53    1   47 1
    54    2   48 1
    55    3   49 1
    56    4   50 1
    57    5   51 1
    58    6   52 1
    59    7   53 1
    60    8   54 1
    61    9   55 1
    62   10   56 1
    63   11   57 1
    64   12   58 1
    65   26   59 1
    66   26   60 1
    67   27   61 1
    68   27   62 1
    69   28   63 1
    70   28   64 1
    71   29   65 1
    72   30   66 1
    73   31   67 1
    74   32   68 1
    75   32   69 1
    76   32   70 1
    77   33   71 1
    78   33   72 1
    79   33   73 1
    80   34   74 1
    81   34   75 1
    82   34   76 1
    83   35   77 1
    84   39   78 1
    85   43   79 1
    86   44   80 1
    87   40   81 1
@<TRIPOS>MOLECULE
6GZM_1
   51    54     0     0     0
SMALL
USER_CHARGES

@<TRIPOS>ATOM
      1 C1          6.6038   -4.8866   -1.2779 C.2       1 <0>         0.1388
      2 C2          4.6886   -0.9186   -2.4482 C.ar      1 <0>         0.1600
      3 C3          6.2563   -3.6904   -0.6221 C.2       1 <0>        -0.0540
      4 C4          5.6019   -1.9153   -2.1713 C.ar      1 <0>         0.1900
      5 C5          5.3737   -2.6291   -1.0125 C.ar      1 <0>         0.3640
      6 C6          6.9678   -3.7234    0.5522 C.2       1 <0>        -0.3316
      7 C7          3.5167   -1.3985   -0.5605 C.ar      1 <0>         0.7200
      8 C8          6.9331   -3.7864    4.1057 C.3       1 <0>        -0.2000
      9 C9          6.2824   -2.4331    4.1750 C.3       1 <0>        -0.2000
     10 C10         1.3068   -1.0268    2.4306 C.3       1 <0>         0.0000
     11 C11         1.5286   -3.2141    1.1754 C.3       1 <0>         0.0000
     12 C12         0.9661   -1.7940    3.7069 C.3       1 <0>         0.0000
     13 C13         1.1891   -3.9812    2.4521 C.3       1 <0>         0.0000
     14 C14         6.2354   -3.2251    2.8978 C.3       1 <0>        -0.1950
     15 C15         2.1762   -1.8611    1.4856 C.3       1 <0>         0.3691
     16 C16         0.3194   -3.1382    3.3816 C.3       1 <0>         0.5030
     17 C17         8.5690   -5.3858    1.5472 C.3       1 <0>         0.2556
     18 C18         7.0459   -2.7719    1.6792 C.3       1 <0>         0.2750
     19 N1          3.6304   -0.6320   -1.6618 N.ar      1 <0>        -0.6200
     20 N2          7.4690   -5.6256   -0.5784 N.2       1 <0>        -0.7068
     21 N3          4.3373   -2.3965   -0.1806 N.ar      1 <0>        -0.6200
     22 N4          7.6711   -4.8917    0.5292 N.pl3     1 <0>         0.3140
     23 N5          2.4431   -1.1323    0.2691 N.pl3     1 <0>        -0.8691
     24 N6          0.1033   -3.8868    4.6482 N.4       1 <0>        -0.8530
     25 F1          6.6344   -2.1619   -2.9847 F         1 <0>        -0.1900
     26 H1          6.2639   -5.2540   -2.2362 H         1 <0>         0.1500
     27 H2          4.7861   -0.3050   -3.3373 H         1 <0>         0.1500
     28 H3          8.0154   -3.8255    4.1083 H         1 <0>         0.1000
     29 H4          6.4534   -4.6038    4.6301 H         1 <0>         0.1000
     30 H5          5.3662   -2.3428    4.7456 H         1 <0>         0.1000
     31 H6          6.9289   -1.5656    4.2242 H         1 <0>         0.1000
     32 H7          0.3858   -0.7214    1.9266 H         1 <0>         0.0000
     33 H8          1.8397   -0.1071    2.6876 H         1 <0>         0.0000
     34 H9          2.2147   -3.8062    0.5639 H         1 <0>         0.0000
     35 H10         0.6240   -3.0729    0.5781 H         1 <0>         0.0000
     36 H11         1.8658   -1.9371    4.3013 H         1 <0>         0.0000
     37 H12         0.2758   -1.2079    4.3107 H         1 <0>         0.0000
     38 H13         0.6478   -4.8894    2.1926 H         1 <0>         0.0000
     39 H14         2.1043   -4.2853    2.9548 H         1 <0>         0.0000
     40 H15         5.2877   -3.6669    2.6146 H         1 <0>         0.1000
     41 H16         3.1427   -2.0426    1.9804 H         1 <0>         0.0000
     42 H17        -0.6706   -2.9914    2.9501 H         1 <0>         0.0000
     43 H18         7.9852   -5.9879    2.2485 H         1 <0>         0.0000
     44 H19         9.3501   -5.9924    1.0806 H         1 <0>         0.0000
     45 H20         9.0324   -4.5395    2.0620 H         1 <0>         0.0000
     46 H21         8.0948   -2.6147    1.9961 H         1 <0>         0.0000
     47 H22         6.6914   -1.7674    1.3778 H         1 <0>         0.0000
     48 H23         1.8061   -0.3891    0.0151 H         1 <0>         0.4000
     49 H24        -0.3204   -4.7698    4.4460 H         1 <0>         0.4500
     50 H25         0.9821   -4.0350    5.1018 H         1 <0>         0.4500
     51 H26        -0.4971   -3.3589    5.2490 H         1 <0>         0.4500
@<TRIPOS>BOND
     1    1    3 1
     2    1   20 2
     3    2    4 ar
     4    2   19 ar
     5    3    5 1
     6    3    6 2
     7    4    5 ar
     8    4   25 1
     9    5   21 ar
    10    6   18 1
    11    6   22 1
    12    7   19 ar
    13    7   21 ar
    14    7   23 1
    15    8    9 1
    16    8   14 1
    17    9   14 1
    18   10   12 1
    19   10   15 1
    20   11   13 1
    21   11   15 1
    22   12   16 1
    23   13   16 1
    24   14   18 1
    25   15   23 1
    26   16   24 1
    27   17   22 1
    28   20   22 1
    29    1   26 1
    30    2   27 1
    31    8   28 1
    32    8   29 1
    33    9   30 1
    34    9   31 1
    35   10   32 1
    36   10   33 1
    37   11   34 1
    38   11   35 1
    39   12   36 1
    40   12   37 1
    41   13   38 1
    42   13   39 1
    43   14   40 1
    44   15   41 1
    45   16   42 1
    46   17   43 1
    47   17   44 1
    48   17   45 1
    49   18   46 1
    50   18   47 1
    51   23   48 1
    52   24   49 1
    53   24   50 1
    54   24   51 1
@<TRIPOS>MOLECULE
6HMP_1
   71    75     0     0     0
SMALL
USER_CHARGES

@<TRIPOS>ATOM
      1 C1          2.1793   -1.9629    1.4126 C.ar      1 <0>        -0.1500
      2 C2          4.1892   -2.2351    2.7253 C.ar      1 <0>        -0.1500
      3 C3          8.7227   -1.1388   -3.5785 C.ar      1 <0>        -0.1500
      4 C4          9.2038    0.6917   -2.0768 C.ar      1 <0>        -0.1500
      5 C5          0.2910   -4.6430    6.0208 C.ar      1 <0>        -0.1500
      6 C6          0.9475   -5.6725    6.6950 C.ar      1 <0>        -0.1500
      7 C7          1.4515   -1.7196    2.5774 C.ar      1 <0>        -0.1500
      8 C8          3.4615   -1.9917    3.8901 C.ar      1 <0>        -0.1500
      9 C9          9.7743   -0.7388   -4.4030 C.ar      1 <0>        -0.1500
     10 C10        10.2555    1.0916   -2.9013 C.ar      1 <0>        -0.1500
     11 C11         2.1826   -4.6601   -1.6621 C.ar      1 <0>        -0.1500
     12 C12         3.0305   -5.4651    0.4397 C.ar      1 <0>        -0.1500
     13 C13         0.1171   -6.0397    4.0571 C.ar      1 <0>        -0.1500
     14 C14         1.2573   -5.6907   -1.6220 C.ar      1 <0>         0.1600
     15 C15         3.5482   -2.2208    1.4866 C.ar      1 <0>         0.0540
     16 C16         3.0825   -4.5521   -0.6078 C.ar      1 <0>         0.0530
     17 C17         0.7737   -7.0693    4.7313 C.ar      1 <0>        -0.1435
     18 C18         8.4374   -0.4235   -2.4154 C.ar      1 <0>         0.1790
     19 C19        -0.1242   -4.8266    4.7018 C.ar      1 <0>         0.0825
     20 C20         1.1888   -6.8857    6.0503 C.ar      1 <0>         0.0825
     21 C21         2.0926   -1.7339    3.8161 C.ar      1 <0>         0.1900
     22 C22        10.5407    0.3764   -4.0644 C.ar      1 <0>         0.1900
     23 C23         4.2973   -2.4715    0.2875 C.2       1 <0>         0.1732
     24 C24         4.0676   -3.4952   -0.6013 C.2       1 <0>        -0.2046
     25 C25         2.0672   -6.4595    0.3858 C.ar      1 <0>         0.4270
     26 C26         5.7648   -2.2414   -1.2370 C.2       1 <0>         0.3125
     27 C27         2.8446   -7.4019    2.5632 C.2       1 <0>         0.5690
     28 C28         5.1936   -4.1679   -2.7420 C.3       1 <0>         0.2556
     29 C29        -1.1624   -4.0765    2.6980 C.3       1 <0>         0.2800
     30 C30         2.2214   -7.6067    8.0676 C.3       1 <0>         0.2800
     31 C31         1.0264   -8.3748    4.0183 C.3       1 <0>         0.1435
     32 C32         2.4639   -8.5239    3.5168 C.3       1 <0>         0.0610
     33 N1          1.1762   -6.5964   -0.6217 N.ar      1 <0>        -0.6200
     34 N2          5.3549   -1.6945   -0.1141 N.2       1 <0>        -0.5653
     35 N3          7.3774   -0.8260   -1.5850 N.2       1 <0>        -0.1790
     36 N4          6.7858   -1.8538   -2.0376 N.2       1 <0>        -0.1260
     37 N5          5.0151   -3.3344   -1.5727 N.pl3     1 <0>         0.0476
     38 N6          2.0222   -7.3742    1.4449 N.am      1 <0>        -0.5470
     39 O1          3.7644   -6.6378    2.8417 O.2       1 <0>        -0.5700
     40 O2         -0.7651   -3.8218    4.0445 O.3       1 <0>        -0.3625
     41 O3          1.8325   -7.8804    6.7231 O.3       1 <0>        -0.3625
     42 F1          1.3936   -1.5002    4.9346 F         1 <0>        -0.1900
     43 F2         11.5506    0.7603   -4.8561 F         1 <0>        -0.1900
     44 H1          1.6647   -1.9489    0.4547 H         1 <0>         0.1500
     45 H2          5.2557   -2.4341    2.7999 H         1 <0>         0.1500
     46 H3          8.1304   -2.0085   -3.8507 H         1 <0>         0.1500
     47 H4          8.9890    1.2553   -1.1726 H         1 <0>         0.1500
     48 H5          0.1052   -3.7004    6.5281 H         1 <0>         0.1500
     49 H6          1.2662   -5.5236    7.7233 H         1 <0>         0.1500
     50 H7          0.3856   -1.5196    2.5200 H         1 <0>         0.1500
     51 H8          3.9598   -2.0024    4.8550 H         1 <0>         0.1500
     52 H9          9.9962   -1.2947   -5.3095 H         1 <0>         0.1500
     53 H10        10.8519    1.9601   -2.6379 H         1 <0>         0.1500
     54 H11         2.1922   -3.9668   -2.4970 H         1 <0>         0.1500
     55 H12         3.7232   -5.4008    1.2743 H         1 <0>         0.1500
     56 H13        -0.2072   -6.1793    3.0287 H         1 <0>         0.1500
     57 H14         0.5334   -5.8186   -2.4201 H         1 <0>         0.1500
     58 H15         4.5841   -3.7522   -3.5488 H         1 <0>         0.0000
     59 H16         6.2497   -4.1757   -3.0259 H         1 <0>         0.0000
     60 H17         4.8777   -5.1888   -2.5098 H         1 <0>         0.0000
     61 H18        -1.6622   -3.1938    2.2916 H         1 <0>         0.0000
     62 H19        -1.8383   -4.9350    2.6728 H         1 <0>         0.0000
     63 H20        -0.2743   -4.2968    2.1009 H         1 <0>         0.0000
     64 H21         2.7239   -8.4815    8.4876 H         1 <0>         0.0000
     65 H22         1.3370   -7.3615    8.6610 H         1 <0>         0.0000
     66 H23         2.9084   -6.7572    8.0731 H         1 <0>         0.0000
     67 H24         0.7715   -9.2128    4.6797 H         1 <0>         0.0000
     68 H25         0.3373   -8.4434    3.1670 H         1 <0>         0.0000
     69 H26         3.1542   -8.4735    4.3676 H         1 <0>         0.0000
     70 H27         2.6238   -9.4992    3.0426 H         1 <0>         0.0000
     71 H28         1.2898   -8.0766    1.3747 H         1 <0>         0.3700
@<TRIPOS>BOND
     1    1    7 ar
     2    1   15 ar
     3    2    8 ar
     4    2   15 ar
     5    3    9 ar
     6    3   18 ar
     7    4   10 ar
     8    4   18 ar
     9    5    6 ar
    10    5   19 ar
    11    6   20 ar
    12    7   21 ar
    13    8   21 ar
    14    9   22 ar
    15   10   22 ar
    16   11   14 ar
    17   11   16 ar
    18   12   16 ar
    19   12   25 ar
    20   13   17 ar
    21   13   19 ar
    22   14   33 ar
    23   15   23 1
    24   16   24 1
    25   17   20 ar
    26   17   31 1
    27   18   35 1
    28   19   40 1
    29   20   41 1
    30   21   42 1
    31   22   43 1
    32   23   24 2
    33   23   34 1
    34   24   37 1
    35   25   33 ar
    36   25   38 1
    37   26   34 2
    38   26   36 1
    39   26   37 1
    40   27   32 1
    41   27   38 am
    42   27   39 2
    43   28   37 1
    44   29   40 1
    45   30   41 1
    46   31   32 1
    47   35   36 2
    48    1   44 1
    49    2   45 1
    50    3   46 1
    51    4   47 1
    52    5   48 1
    53    6   49 1
    54    7   50 1
    55    8   51 1
    56    9   52 1
    57   10   53 1
    58   11   54 1
    59   12   55 1
    60   13   56 1
    61   14   57 1
    62   28   58 1
    63   28   59 1
    64   28   60 1
    65   29   61 1
    66   29   62 1
    67   29   63 1
    68   30   64 1
    69   30   65 1
    70   30   66 1
    71   31   67 1
    72   31   68 1
    73   32   69 1
    74   32   70 1
    75   38   71 1
@<TRIPOS>MOLECULE
6HMR_1
   67    71     0     0     0
SMALL
USER_CHARGES

@<TRIPOS>ATOM
      1 C1          4.6624  -10.0510    0.0719 C.ar      1 <0>        -0.1500
      2 C2          4.2301   -9.2429   -0.9795 C.ar      1 <0>        -0.1500
      3 C3          5.2302   -9.4735    1.2077 C.ar      1 <0>        -0.1500
      4 C4          4.8949   -0.4365    2.0023 C.ar      1 <0>        -0.1500
      5 C5          7.0809   -0.5893    0.9850 C.ar      1 <0>        -0.1500
      6 C6          4.3655   -7.8571   -0.8952 C.ar      1 <0>        -0.1500
      7 C7          5.3656   -8.0878    1.2919 C.ar      1 <0>        -0.1500
      8 C8          5.3743    4.5456    3.4850 C.ar      1 <0>        -0.1500
      9 C9          4.0891    4.8882    3.9050 C.ar      1 <0>        -0.1500
     10 C10         5.3846    0.4983    2.9144 C.ar      1 <0>        -0.1500
     11 C11         7.5707    0.3455    1.8971 C.ar      1 <0>        -0.1500
     12 C12         5.0975   -0.0278   -2.9657 C.ar      1 <0>        -0.1500
     13 C13         3.6962    0.6460   -1.1308 C.ar      1 <0>        -0.1500
     14 C14         4.6378    4.6027    1.1847 C.ar      1 <0>        -0.1500
     15 C15         4.8735    1.2201   -3.5246 C.ar      1 <0>         0.1600
     16 C16         5.7430   -0.9803    1.0376 C.ar      1 <0>         0.0540
     17 C17         4.4940   -0.3125   -1.7459 C.ar      1 <0>         0.0530
     18 C18         3.3525    4.9453    1.6047 C.ar      1 <0>        -0.1435
     19 C19         4.9333   -7.2796    0.2405 C.ar      1 <0>         0.1790
     20 C20         5.6487    4.4029    2.1248 C.ar      1 <0>         0.0825
     21 C21         3.0782    5.0880    2.9649 C.ar      1 <0>         0.0825
     22 C22         6.7225    0.8893    2.8618 C.ar      1 <0>         0.1900
     23 C23         5.2389   -1.9428    0.0988 C.2       1 <0>         0.1732
     24 C24         4.6953   -1.5982   -1.1210 C.2       1 <0>        -0.0130
     25 C25         3.5351    1.8638   -1.7717 C.ar      1 <0>         0.4270
     26 C26         4.7611   -3.9555   -0.6296 C.2       1 <0>         0.5041
     27 C27         2.0626    2.6941    0.0657 C.2       1 <0>         0.5690
     28 C28         7.1145    3.9394    0.3104 C.3       1 <0>         0.2800
     29 C29         1.6366    5.5458    4.8002 C.3       1 <0>         0.2800
     30 C30         2.2713    5.1574    0.5739 C.3       1 <0>         0.1435
     31 C31         1.3195    3.9675    0.4391 C.3       1 <0>         0.0610
     32 N1          4.1051    2.1767   -2.9570 N.ar      1 <0>        -0.6200
     33 N2          5.2770   -3.2940    0.3825 N.2       1 <0>        -0.5653
     34 N3          5.0703   -5.8835    0.3256 N.2       1 <0>        -0.1790
     35 N4          4.6288   -5.3032   -0.7123 N.2       1 <0>        -0.1260
     36 N5          2.7302    2.8227   -1.1449 N.am      1 <0>        -0.5470
     37 O1          2.0461    1.7241    0.8182 O.2       1 <0>        -0.5700
     38 O2          6.9030    4.0690    1.7155 O.3       1 <0>        -0.3625
     39 O3          1.8281    5.4210    3.3925 O.3       1 <0>        -0.3625
     40 F1          7.1928    1.7870    3.7378 F         1 <0>        -0.1900
     41 S1          4.2107   -3.0158   -1.9559 S.3       1 <0>        -0.0800
     42 H1          4.5569  -11.1300    0.0061 H         1 <0>         0.1500
     43 H2          3.7878   -9.6926   -1.8637 H         1 <0>         0.1500
     44 H3          5.5667  -10.1030    2.0262 H         1 <0>         0.1500
     45 H4          3.8496   -0.7313    2.0569 H         1 <0>         0.1500
     46 H5          7.7549   -1.0036    0.2389 H         1 <0>         0.1500
     47 H6          4.0263   -7.2352   -1.7194 H         1 <0>         0.1500
     48 H7          5.8093   -7.6471    2.1809 H         1 <0>         0.1500
     49 H8          6.1579    4.3918    4.2217 H         1 <0>         0.1500
     50 H9          3.8828    5.0001    4.9662 H         1 <0>         0.1500
     51 H10         4.7246    0.9212    3.6660 H         1 <0>         0.1500
     52 H11         8.6121    0.6508    1.8567 H         1 <0>         0.1500
     53 H12         5.7267   -0.7500   -3.4761 H         1 <0>         0.1500
     54 H13         3.2143    0.4465   -0.1776 H         1 <0>         0.1500
     55 H14         4.8548    4.4899    0.1252 H         1 <0>         0.1500
     56 H15         5.3213    1.4916   -4.4749 H         1 <0>         0.1500
     57 H16         8.1566    3.6703    0.1214 H         1 <0>         0.0000
     58 H17         6.8758    4.8846   -0.1836 H         1 <0>         0.0000
     59 H18         6.4617    3.1533   -0.0764 H         1 <0>         0.0000
     60 H19         0.5974    5.8143    5.0049 H         1 <0>         0.0000
     61 H20         2.3069    6.3144    5.1932 H         1 <0>         0.0000
     62 H21         1.8639    4.5890    5.2761 H         1 <0>         0.0000
     63 H22         1.7040    6.0657    0.8146 H         1 <0>         0.0000
     64 H23         2.7496    5.3496   -0.3949 H         1 <0>         0.0000
     65 H24         0.8265    3.7839    1.4015 H         1 <0>         0.0000
     66 H25         0.5228    4.1716   -0.2856 H         1 <0>         0.0000
     67 H26         2.6527    3.7080   -1.6399 H         1 <0>         0.3700
@<TRIPOS>BOND
     1    1    2 ar
     2    1    3 ar
     3    2    6 ar
     4    3    7 ar
     5    4   10 ar
     6    4   16 ar
     7    5   11 ar
     8    5   16 ar
     9    6   19 ar
    10    7   19 ar
    11    8    9 ar
    12    8   20 ar
    13    9   21 ar
    14   10   22 ar
    15   11   22 ar
    16   12   15 ar
    17   12   17 ar
    18   13   17 ar
    19   13   25 ar
    20   14   18 ar
    21   14   20 ar
    22   15   32 ar
    23   16   23 1
    24   17   24 1
    25   18   21 ar
    26   18   30 1
    27   19   34 1
    28   20   38 1
    29   21   39 1
    30   22   40 1
    31   23   24 2
    32   23   33 1
    33   24   41 1
    34   25   32 ar
    35   25   36 1
    36   26   33 2
    37   26   35 1
    38   26   41 1
    39   27   31 1
    40   27   36 am
    41   27   37 2
    42   28   38 1
    43   29   39 1
    44   30   31 1
    45   34   35 2
    46    1   42 1
    47    2   43 1
    48    3   44 1
    49    4   45 1
    50    5   46 1
    51    6   47 1
    52    7   48 1
    53    8   49 1
    54    9   50 1
    55   10   51 1
    56   11   52 1
    57   12   53 1
    58   13   54 1
    59   14   55 1
    60   15   56 1
    61   28   57 1
    62   28   58 1
    63   28   59 1
    64   29   60 1
    65   29   61 1
    66   29   62 1
    67   30   63 1
    68   30   64 1
    69   31   65 1
    70   31   66 1
    71   36   67 1
@<TRIPOS>MOLECULE
6RCG_1
   54    59     0     0     0
SMALL
USER_CHARGES

@<TRIPOS>ATOM
      1 C1          0.5815   -0.5582    7.8479 C.ar      1 <0>        -0.1500
      2 C2          4.7397    0.9142   -2.9487 C.ar      1 <0>        -0.1500
      3 C3          1.5090   -1.0384    6.9233 C.ar      1 <0>        -0.1500
      4 C4         -0.5245    0.1714    7.4117 C.ar      1 <0>        -0.1500
      5 C5          3.9666    1.4025   -4.0073 C.ar      1 <0>        -0.1500
      6 C6          0.2248   -0.0591    5.1264 C.ar      1 <0>        -0.1500
      7 C7          3.5924   -1.4648    4.8691 C.2       1 <0>         0.0365
      8 C8          3.3742   -1.1237   -2.9797 C.ar      1 <0>         0.2272
      9 C9          3.2408   -2.0353    2.8457 C.ar      1 <0>         0.2272
     10 C10         4.4116   -0.3522   -2.4636 C.ar      1 <0>        -0.1516
     11 C11         1.3307   -0.7888    5.5626 C.ar      1 <0>        -0.0230
     12 C12        -0.7028    0.4210    6.0509 C.ar      1 <0>         0.1900
     13 C13         2.9191    0.6520   -4.5462 C.ar      1 <0>         0.1900
     14 C14         2.6077   -0.6174   -4.0430 C.ar      1 <0>         0.1900
     15 C15         2.0136   -1.6294    3.3452 C.ar      1 <0>         0.1054
     16 C16         3.2710   -2.4615    1.5216 C.ar      1 <0>         0.4100
     17 C17         4.2320   -2.2890   -1.4095 C.2       1 <0>         0.0065
     18 C18         0.9962   -2.0343    1.4237 C.ar      1 <0>         0.7200
     19 C19        -0.0593   -2.5092   -0.7479 C.3       1 <0>         0.3691
     20 C20        -1.2275   -1.0685    0.8972 C.3       1 <0>         0.3691
     21 C21        -1.4335   -2.9317   -1.2548 C.3       1 <0>         0.2800
     22 C22        -2.5395   -1.5675    0.3019 C.3       1 <0>         0.2800
     23 C23         4.5558   -3.3409   -0.4282 C.3       1 <0>         0.5491
     24 N1          4.2155   -1.9278    3.8056 N.2       1 <0>        -0.5653
     25 N2          3.2777   -2.3232   -2.3123 N.2       1 <0>        -0.5653
     26 N3          0.8415   -1.5999    2.6935 N.ar      1 <0>        -0.5670
     27 N4          2.1230   -2.4585    0.8022 N.ar      1 <0>        -0.6200
     28 N5          4.9427   -1.1222   -1.4608 N.pl3     1 <0>         0.0332
     29 N6          2.2564   -1.2682    4.6398 N.pl3     1 <0>         0.3262
     30 N7         -0.1641   -2.0466    0.6428 N.pl3     1 <0>        -0.8382
     31 N8          4.4537   -2.8856    0.9420 N.pl3     1 <0>        -0.8691
     32 O1         -2.3761   -1.8736   -1.0824 O.3       1 <0>        -0.5600
     33 F1         -1.7649    1.1216    5.6322 F         1 <0>        -0.1900
     34 F2          2.2005    1.1532   -5.5603 F         1 <0>        -0.1900
     35 F3          1.6013   -1.3255   -4.5701 F         1 <0>        -0.1900
     36 H1          0.7201   -0.7525    8.9074 H         1 <0>         0.1500
     37 H2          5.5530    1.4948   -2.5290 H         1 <0>         0.1500
     38 H3          2.3664   -1.6058    7.2772 H         1 <0>         0.1500
     39 H4         -1.2469    0.5453    8.1312 H         1 <0>         0.1500
     40 H5          4.1860    2.3846   -4.4189 H         1 <0>         0.1500
     41 H6          0.0732    0.1428    4.0689 H         1 <0>         0.1500
     42 H7          4.0572   -1.2539    5.8234 H         1 <0>         0.1500
     43 H8          0.6396   -3.3540   -0.8300 H         1 <0>         0.0000
     44 H9          0.3286   -1.6888   -1.3706 H         1 <0>         0.0000
     45 H10        -0.9521   -0.1089    0.4332 H         1 <0>         0.0000
     46 H11        -1.3545   -0.8951    1.9755 H         1 <0>         0.0000
     47 H12        -1.3798   -3.1582   -2.3245 H         1 <0>         0.0000
     48 H13        -1.7908   -3.8345   -0.7450 H         1 <0>         0.0000
     49 H14        -2.9142   -2.4491    0.8362 H         1 <0>         0.0000
     50 H15        -3.3021   -0.7862    0.3821 H         1 <0>         0.0000
     51 H16         3.8855   -4.2145   -0.5229 H         1 <0>         0.0000
     52 H17         5.5818   -3.7314   -0.5544 H         1 <0>         0.0000
     53 H18         5.7211   -0.8697   -0.8663 H         1 <0>         0.2700
     54 H19         5.2960   -2.8800    1.5033 H         1 <0>         0.4000
@<TRIPOS>BOND
     1    1    3 ar
     2    1    4 ar
     3    2    5 ar
     4    2   10 ar
     5    3   11 ar
     6    4   12 ar
     7    5   13 ar
     8    6   11 ar
     9    6   12 ar
    10    7   24 2
    11    7   29 1
    12    8   10 ar
    13    8   14 ar
    14    8   25 1
    15    9   15 ar
    16    9   16 ar
    17    9   24 1
    18   10   28 1
    19   11   29 1
    20   12   33 1
    21   13   14 ar
    22   13   34 1
    23   14   35 1
    24   15   26 ar
    25   15   29 1
    26   16   27 ar
    27   16   31 1
    28   17   23 1
    29   17   25 2
    30   17   28 1
    31   18   26 ar
    32   18   27 ar
    33   18   30 1
    34   19   21 1
    35   19   30 1
    36   20   22 1
    37   20   30 1
    38   21   32 1
    39   22   32 1
    40   23   31 1
    41    1   36 1
    42    2   37 1
    43    3   38 1
    44    4   39 1
    45    5   40 1
    46    6   41 1
    47    7   42 1
    48   19   43 1
    49   19   44 1
    50   20   45 1
    51   20   46 1
    52   21   47 1
    53   21   48 1
    54   22   49 1
    55   22   50 1
    56   23   51 1
    57   23   52 1
    58   28   53 1
    59   31   54 1
@<TRIPOS>MOLECULE
6RCH_1
   60    66     0     0     0
SMALL
USER_CHARGES

@<TRIPOS>ATOM
      1 C1          0.0182    5.6485    3.9735 C.ar      1 <0>        -0.1500
      2 C2         -0.2258    5.0815    2.7262 C.ar      1 <0>        -0.1500
      3 C3          0.7834    4.9608    4.9159 C.ar      1 <0>        -0.1500
      4 C4          0.2944    3.8246    2.4164 C.ar      1 <0>        -0.1500
      5 C5          2.0872    2.9882    5.5575 C.ar      1 <0>        -0.1500
      6 C6          3.2505   -5.1514   -3.6944 C.ar      1 <0>        -0.1500
      7 C7          2.6074    1.7313    5.2477 C.ar      1 <0>        -0.1500
      8 C8          4.2407   -4.9098   -4.6524 C.ar      1 <0>        -0.1500
      9 C9          1.5982    1.8520    3.0580 C.ar      1 <0>        -0.1500
     10 C10         4.0403   -0.6147    4.1902 C.2       1 <0>         0.0365
     11 C11         1.3149    3.6947    4.6212 C.ar      1 <0>         0.0000
     12 C12         1.0667    3.1181    3.3527 C.ar      1 <0>         0.0000
     13 C13         4.9777   -4.9720   -1.9615 C.ar      1 <0>         0.2272
     14 C14         3.2188   -2.0807    2.8790 C.ar      1 <0>         0.2272
     15 C15         3.6596   -5.1745   -2.3607 C.ar      1 <0>        -0.1516
     16 C16         2.3633    1.1643    4.0004 C.ar      1 <0>        -0.0230
     17 C17         5.5717   -4.7030   -4.2828 C.ar      1 <0>         0.1900
     18 C18         5.9594   -4.7308   -2.9373 C.ar      1 <0>         0.1900
     19 C19         2.3395   -1.0100    2.8512 C.ar      1 <0>         0.1054
     20 C20         2.8956   -3.1807    2.0907 C.ar      1 <0>         0.4100
     21 C21         3.8741   -5.2933   -0.1619 C.2       1 <0>         0.0065
     22 C22         0.9962   -2.0343    1.4237 C.ar      1 <0>         0.7200
     23 C23        -0.1532   -2.8250   -0.6033 C.3       1 <0>         0.3691
     24 C24        -1.0603   -0.8852    0.6459 C.3       1 <0>         0.3691
     25 C25        -1.5838   -3.1363   -1.0284 C.3       1 <0>         0.2800
     26 C26        -2.4425   -1.2998    0.1536 C.3       1 <0>         0.2800
     27 C27         3.4450   -5.4705    1.2659 C.3       1 <0>         0.5491
     28 N1          4.2738   -1.8211    3.7173 N.2       1 <0>        -0.5653
     29 N2          5.0916   -5.0496   -0.5924 N.2       1 <0>        -0.5653
     30 N3          1.2028   -0.9114    2.1457 N.ar      1 <0>        -0.5670
     31 N4          1.7609   -3.1505    1.3512 N.ar      1 <0>        -0.6200
     32 N5          2.9760   -5.3776   -1.1893 N.pl3     1 <0>         0.0332
     33 N6          2.8797   -0.0819    3.6950 N.pl3     1 <0>         0.3262
     34 N7         -0.1641   -2.0466    0.6428 N.pl3     1 <0>        -0.8382
     35 N8          3.7296   -4.3118    2.0590 N.pl3     1 <0>        -0.8691
     36 O1         -2.3495   -1.9353   -1.1208 O.3       1 <0>        -0.5600
     37 F1          6.4925   -4.4743   -5.2294 F         1 <0>        -0.1900
     38 F2          7.2388   -4.5301   -2.5980 F         1 <0>        -0.1900
     39 H1         -0.3872    6.6271    4.2139 H         1 <0>         0.1500
     40 H2         -0.8216    5.6176    1.9932 H         1 <0>         0.1500
     41 H3          0.9613    5.4232    5.8845 H         1 <0>         0.1500
     42 H4          0.0907    3.4010    1.4351 H         1 <0>         0.1500
     43 H5          2.2907    3.4123    6.5386 H         1 <0>         0.1500
     44 H6          2.2171   -5.3121   -3.9789 H         1 <0>         0.1500
     45 H7          3.2021    1.2060    5.9912 H         1 <0>         0.1500
     46 H8          3.9687   -4.8816   -5.7047 H         1 <0>         0.1500
     47 H9          1.4123    1.4008    2.0841 H         1 <0>         0.1500
     48 H10         4.6747   -0.0830    4.8873 H         1 <0>         0.1500
     49 H11         0.4060   -3.7631   -0.4766 H         1 <0>         0.0000
     50 H12         0.3466   -2.2379   -1.3887 H         1 <0>         0.0000
     51 H13        -0.6478   -0.1107   -0.0189 H         1 <0>         0.0000
     52 H14        -1.1425   -0.4528    1.6535 H         1 <0>         0.0000
     53 H15        -1.5820   -3.6066   -2.0170 H         1 <0>         0.0000
     54 H16        -2.0677   -3.8332   -0.3335 H         1 <0>         0.0000
     55 H17        -2.9401   -1.9679    0.8670 H         1 <0>         0.0000
     56 H18        -3.0745   -0.4134    0.0381 H         1 <0>         0.0000
     57 H19         2.3682   -5.6631    1.3244 H         1 <0>         0.0000
     58 H20         3.9535   -6.3243    1.7260 H         1 <0>         0.0000
     59 H21         1.9844   -5.5577   -1.1034 H         1 <0>         0.2700
     60 H22         4.5582   -4.2873    2.6267 H         1 <0>         0.4000
@<TRIPOS>BOND
     1    1    2 ar
     2    1    3 ar
     3    2    4 ar
     4    3   11 ar
     5    4   12 ar
     6    5    7 ar
     7    5   11 ar
     8    6    8 ar
     9    6   15 ar
    10    7   16 ar
    11    8   17 ar
    12    9   12 ar
    13    9   16 ar
    14   10   28 2
    15   10   33 1
    16   11   12 ar
    17   13   15 ar
    18   13   18 ar
    19   13   29 1
    20   14   19 ar
    21   14   20 ar
    22   14   28 1
    23   15   32 1
    24   16   33 1
    25   17   18 ar
    26   17   37 1
    27   18   38 1
    28   19   30 ar
    29   19   33 1
    30   20   31 ar
    31   20   35 1
    32   21   27 1
    33   21   29 2
    34   21   32 1
    35   22   30 ar
    36   22   31 ar
    37   22   34 1
    38   23   25 1
    39   23   34 1
    40   24   26 1
    41   24   34 1
    42   25   36 1
    43   26   36 1
    44   27   35 1
    45    1   39 1
    46    2   40 1
    47    3   41 1
    48    4   42 1
    49    5   43 1
    50    6   44 1
    51    7   45 1
    52    8   46 1
    53    9   47 1
    54   10   48 1
    55   23   49 1
    56   23   50 1
    57   24   51 1
    58   24   52 1
    59   25   53 1
    60   25   54 1
    61   26   55 1
    62   26   56 1
    63   27   57 1
    64   27   58 1
    65   32   59 1
    66   35   60 1
@<TRIPOS>MOLECULE
6RU7_1
   39    41     0     0     0
SMALL
USER_CHARGES

@<TRIPOS>ATOM
      1 C1         -1.3760   -5.1228    0.9469 C.ar      1 <0>         0.4700
      2 C2         -2.8394   -1.0328    0.6908 C.2       1 <0>         0.0365
      3 C3         -3.0181   -3.1263    0.3322 C.ar      1 <0>         0.2272
      4 C4         -1.8113   -2.9549    0.9915 C.ar      1 <0>         0.1054
      5 C5         -3.3653   -4.4278   -0.0157 C.ar      1 <0>         0.4100
      6 C6          1.0324    0.7610    1.7344 C.3       1 <0>         0.2800
      7 C7          0.4468   -0.3802    0.9263 C.3       1 <0>         0.2800
      8 C8         -0.1994    1.3333    2.4288 C.3       1 <0>         0.2800
      9 C9         -0.6159   -0.9100    1.8769 C.3       1 <0>         0.5356
     10 C10        -0.8811    2.4285    1.6206 C.3       1 <0>         0.2800
     11 N1         -0.9319   -3.9076    1.3355 N.ar      1 <0>        -0.5670
     12 N2         -2.5236   -5.4412    0.3006 N.ar      1 <0>        -0.6200
     13 N3         -3.6482   -1.9207    0.1513 N.2       1 <0>        -0.5653
     14 N4         -1.7127   -1.6108    1.2130 N.pl3     1 <0>         0.0476
     15 N5         -4.5712   -4.6940   -0.6867 N.pl3     1 <0>        -0.9000
     16 O1         -4.7274    2.5579   -1.6809 O.3       1 <0>        -1.0333
     17 O2         -3.8432    4.9476   -1.4184 O.3       1 <0>        -1.0333
     18 O3         -4.0796    4.3847    2.6461 O.3       1 <0>        -0.9500
     19 O4         -5.8378    4.1609   -0.0172 O.2       1 <0>        -1.0333
     20 O5         -2.0255    5.1691    1.2016 O.2       1 <0>        -0.9500
     21 O6         -1.1285    0.2356    2.5840 O.3       1 <0>        -0.5600
     22 O7          1.9175    0.2377    2.7247 O.3       1 <0>        -0.6800
     23 O8          1.3993   -1.3703    0.5961 O.3       1 <0>        -0.6800
     24 O9         -2.0130    2.8853    2.3400 O.3       1 <0>        -0.5512
     25 O10        -3.5346    3.2679    0.4061 O.3       1 <0>        -0.5424
     26 P1         -4.5711    3.7732   -0.7729 P.3       1 <0>         1.3712
     27 P2         -2.9405    4.0717    1.7001 P.3       1 <0>         1.4424
     28 H1         -0.7262   -5.9584    1.1846 H         1 <0>         0.1500
     29 H2         -3.0138    0.0337    0.7328 H         1 <0>         0.1500
     30 H3          1.5934    1.4794    1.1289 H         1 <0>         0.0000
     31 H4         -0.0011    0.0012    0.0011 H         1 <0>         0.0000
     32 H5          0.0356    1.7105    3.4337 H         1 <0>         0.0000
     33 H6         -0.1996   -1.6322    2.6171 H         1 <0>         0.0000
     34 H7         -1.2043    2.0360    0.6553 H         1 <0>         0.0000
     35 H8         -0.1948    3.2622    1.4650 H         1 <0>         0.0000
     36 H9         -5.2074   -3.9423   -0.8738 H         1 <0>         0.4000
     37 H10        -4.8247   -5.6431   -0.8864 H         1 <0>         0.4000
     38 H11         2.2642    1.0001    3.2121 H         1 <0>         0.4000
     39 H12         2.0952   -0.9374    0.0709 H         1 <0>         0.4000
@<TRIPOS>BOND
     1    1   11 ar
     2    1   12 ar
     3    2   13 2
     4    2   14 1
     5    3    4 ar
     6    3    5 ar
     7    3   13 1
     8    4   11 ar
     9    4   14 1
    10    5   12 ar
    11    5   15 1
    12    6    7 1
    13    6    8 1
    14    6   22 1
    15    7    9 1
    16    7   23 1
    17    8   10 1
    18    8   21 1
    19    9   14 1
    20    9   21 1
    21   10   24 1
    22   16   26 1
    23   17   26 1
    24   18   27 1
    25   19   26 2
    26   20   27 2
    27   24   27 1
    28   25   26 1
    29   25   27 1
    30    1   28 1
    31    2   29 1
    32    6   30 1
    33    7   31 1
    34    8   32 1
    35    9   33 1
    36   10   34 1
    37   10   35 1
    38   15   36 1
    39   15   37 1
    40   22   38 1
    41   23   39 1
@<TRIPOS>MOLECULE
6RU6_1
   45    47     0     0     0
SMALL
USER_CHARGES

@<TRIPOS>ATOM
      1 C1         -1.3760   -5.1228    0.9469 C.ar      1 <0>         0.4700
      2 C2         -2.8394   -1.0328    0.6908 C.2       1 <0>         0.0365
      3 C3         -3.0181   -3.1263    0.3322 C.ar      1 <0>         0.2272
      4 C4         -1.8113   -2.9549    0.9915 C.ar      1 <0>         0.1054
      5 C5         -3.3653   -4.4278   -0.0157 C.ar      1 <0>         0.4100
      6 C6          1.0324    0.7610    1.7344 C.3       1 <0>         0.2800
      7 C7          0.4468   -0.3802    0.9263 C.3       1 <0>         0.2800
      8 C8         -0.1994    1.3333    2.4288 C.3       1 <0>         0.2800
      9 C9         -0.6159   -0.9100    1.8769 C.3       1 <0>         0.5356
     10 C10        -0.8811    2.4285    1.6206 C.3       1 <0>         0.2800
     11 C11        -4.6582    2.1738   -1.7072 C.3       1 <0>         0.0000
     12 N1         -0.9319   -3.9076    1.3356 N.ar      1 <0>        -0.5670
     13 N2         -2.5236   -5.4412    0.3006 N.ar      1 <0>        -0.6200
     14 N3         -3.6482   -1.9207    0.1513 N.2       1 <0>        -0.5653
     15 N4         -1.7127   -1.6108    1.2130 N.pl3     1 <0>         0.0476
     16 N5         -4.5712   -4.6940   -0.6867 N.pl3     1 <0>        -0.9000
     17 O1         -3.8009    0.3277   -3.4417 O.3       1 <0>        -1.0333
     18 O2         -3.0995    2.7859   -3.7933 O.3       1 <0>        -1.0333
     19 O3         -3.8938    4.7769   -1.6336 O.3       1 <0>        -0.9500
     20 O4         -4.0679    4.3744    2.6471 O.3       1 <0>        -0.9500
     21 O5         -2.0923    1.4216   -1.8481 O.2       1 <0>        -1.0333
     22 O6         -5.9427    3.9893   -0.1557 O.2       1 <0>        -0.9500
     23 O7         -2.0444    5.1872    1.1753 O.2       1 <0>        -0.9500
     24 O8         -1.1285    0.2356    2.5840 O.3       1 <0>        -0.5600
     25 O9          1.9175    0.2377    2.7247 O.3       1 <0>        -0.6800
     26 O10         1.3993   -1.3703    0.5961 O.3       1 <0>        -0.6800
     27 O11        -2.0156    2.8911    2.3344 O.3       1 <0>        -0.5512
     28 O12        -3.5475    3.2644    0.4098 O.3       1 <0>        -0.5424
     29 P1         -3.2355    1.6073   -2.8376 P.3       1 <0>         1.1000
     30 P2         -4.5759    3.7537   -0.7557 P.3       1 <0>         1.1712
     31 P3         -2.9367    4.0773    1.6869 P.3       1 <0>         1.4424
     32 H1         -0.7262   -5.9584    1.1846 H         1 <0>         0.1500
     33 H2         -3.0138    0.0337    0.7328 H         1 <0>         0.1500
     34 H3          1.5934    1.4794    1.1289 H         1 <0>         0.0000
     35 H4         -0.0011    0.0012    0.0011 H         1 <0>         0.0000
     36 H5          0.0341    1.7134    3.4321 H         1 <0>         0.0000
     37 H6         -0.1996   -1.6322    2.6171 H         1 <0>         0.0000
     38 H7         -1.2083    2.0424    0.6506 H         1 <0>         0.0000
     39 H8         -0.1988    3.2686    1.4603 H         1 <0>         0.0000
     40 H9         -4.8067    1.3592   -0.9899 H         1 <0>         0.0000
     41 H10        -5.5425    2.2278   -2.3514 H         1 <0>         0.0000
     42 H11        -5.2074   -3.9423   -0.8738 H         1 <0>         0.4000
     43 H12        -4.8247   -5.6431   -0.8864 H         1 <0>         0.4000
     44 H13         2.2642    1.0001    3.2121 H         1 <0>         0.4000
     45 H14         2.0952   -0.9374    0.0709 H         1 <0>         0.4000
@<TRIPOS>BOND
     1    1   12 ar
     2    1   13 ar
     3    2   14 2
     4    2   15 1
     5    3    4 ar
     6    3    5 ar
     7    3   14 1
     8    4   12 ar
     9    4   15 1
    10    5   13 ar
    11    5   16 1
    12    6    7 1
    13    6    8 1
    14    6   25 1
    15    7    9 1
    16    7   26 1
    17    8   10 1
    18    8   24 1
    19    9   15 1
    20    9   24 1
    21   10   27 1
    22   11   29 1
    23   11   30 1
    24   17   29 1
    25   18   29 1
    26   19   30 1
    27   20   31 1
    28   21   29 2
    29   22   30 2
    30   23   31 2
    31   27   31 1
    32   28   30 1
    33   28   31 1
    34    1   32 1
    35    2   33 1
    36    6   34 1
    37    7   35 1
    38    8   36 1
    39    9   37 1
    40   10   38 1
    41   10   39 1
    42   11   40 1
    43   11   41 1
    44   16   42 1
    45   16   43 1
    46   25   44 1
    47   26   45 1
@<TRIPOS>MOLECULE
7NZY_1
   28    31     0     0     0
SMALL
USER_CHARGES

@<TRIPOS>ATOM
      1 C1         -6.5290   -2.1833    8.0963 C.2       1 <0>        -0.1500
      2 C2         -1.1268   -1.7447    0.5712 C.ar      1 <0>        -0.1500
      3 C3         -0.6842   -0.4292    0.7267 C.ar      1 <0>        -0.1500
      4 C4         -5.6442   -1.7524    7.0791 C.2       1 <0>        -0.1500
      5 C5         -1.9945   -0.2044    2.7484 C.ar      1 <0>        -0.1500
      6 C6         -6.8595   -3.4828    7.7898 C.2       1 <0>        -0.0100
      7 C7         -2.4376   -1.5188    2.5953 C.ar      1 <0>         0.0530
      8 C8         -2.0067   -2.3071    1.5000 C.ar      1 <0>         0.1790
      9 C9         -1.1161    0.3371    1.8106 C.ar      1 <0>         0.1770
     10 C10        -5.4969   -2.8194    6.2237 C.2       1 <0>         0.1400
     11 C11        -4.6583   -2.8254    5.0112 C.2       1 <0>         0.5160
     12 C12        -3.3490   -2.1522    3.5272 C.2       1 <0>         0.1335
     13 C13        -3.2585   -4.1623    2.1867 C.2       1 <0>         0.5090
     14 N1         -3.9327   -1.7300    4.6254 N.2       1 <0>        -0.5653
     15 N2         -4.5623   -3.9014    4.2234 N.2       1 <0>        -0.7068
     16 N3         -2.4416   -3.6514    1.3177 N.2       1 <0>        -0.6290
     17 N4         -3.7198   -3.4479    3.2808 N.pl3     1 <0>         0.5606
     18 N5         -3.7233   -5.4506    2.0808 N.pl3     1 <0>        -0.8500
     19 O1         -6.2344   -3.8782    6.6499 O.3       1 <0>        -0.2800
     20 Cl1        -0.5607    1.9566    1.9911 Cl        1 <0>        -0.1770
     21 H1         -6.8815   -1.6176    8.9466 H         1 <0>         0.1500
     22 H2         -0.7803   -2.3272   -0.2785 H         1 <0>         0.1500
     23 H3          0.0007   -0.0133   -0.0082 H         1 <0>         0.1500
     24 H4         -5.1763   -0.7818    6.9900 H         1 <0>         0.1500
     25 H5         -2.3307    0.3928    3.5930 H         1 <0>         0.1500
     26 H6         -7.4921   -4.2234    8.2567 H         1 <0>         0.1500
     27 H7         -3.4169   -5.9966    1.3109 H         1 <0>         0.4000
     28 H8         -4.3462   -5.7823    2.7783 H         1 <0>         0.4000
@<TRIPOS>BOND
     1    1    4 1
     2    1    6 2
     3    2    3 ar
     4    2    8 ar
     5    3    9 ar
     6    4   10 2
     7    5    7 ar
     8    5    9 ar
     9    6   19 1
    10    7    8 ar
    11    7   12 1
    12    8   16 1
    13    9   20 1
    14   10   11 1
    15   10   19 1
    16   11   14 1
    17   11   15 2
    18   12   14 2
    19   12   17 1
    20   13   16 2
    21   13   17 1
    22   13   18 1
    23   15   17 1
    24    1   21 1
    25    2   22 1
    26    3   23 1
    27    4   24 1
    28    5   25 1
    29    6   26 1
    30   18   27 1
    31   18   28 1
@<TRIPOS>MOLECULE
7P7G_1
   35    37     0     0     0
SMALL
USER_CHARGES

@<TRIPOS>ATOM
      1 C1         -1.3760   -5.1228    0.9469 C.ar      1 <0>         0.4700
      2 C2         -2.8394   -1.0328    0.6908 C.2       1 <0>         0.0365
      3 C3         -3.0181   -3.1263    0.3322 C.ar      1 <0>         0.2272
      4 C4         -1.8113   -2.9549    0.9915 C.ar      1 <0>         0.1054
      5 C5         -3.3653   -4.4278   -0.0157 C.ar      1 <0>         0.4100
      6 C6          1.0324    0.7610    1.7344 C.3       1 <0>         0.2800
      7 C7          0.4468   -0.3802    0.9263 C.3       1 <0>         0.2800
      8 C8         -0.1994    1.3333    2.4288 C.3       1 <0>         0.2800
      9 C9         -0.6159   -0.9100    1.8769 C.3       1 <0>         0.5356
     10 C10        -0.8811    2.4285    1.6206 C.3       1 <0>         0.2800
     11 N1         -0.9319   -3.9076    1.3356 N.ar      1 <0>        -0.5670
     12 N2         -2.5236   -5.4412    0.3006 N.ar      1 <0>        -0.6200
     13 N3         -3.6482   -1.9207    0.1513 N.2       1 <0>        -0.5653
     14 N4         -1.7127   -1.6108    1.2130 N.pl3     1 <0>         0.0476
     15 N5         -4.5712   -4.6940   -0.6867 N.pl3     1 <0>        -0.9000
     16 O1         -4.0384    4.2993    2.7242 O.3       1 <0>        -1.0333
     17 O2         -3.4458    3.5054    0.3649 O.3       1 <0>        -1.0333
     18 O3         -1.9936    5.2689    1.5301 O.2       1 <0>        -1.0333
     19 O4         -1.1285    0.2356    2.5840 O.3       1 <0>        -0.5600
     20 O5          1.9175    0.2377    2.7247 O.3       1 <0>        -0.6800
     21 O6          1.3993   -1.3703    0.5961 O.3       1 <0>        -0.6800
     22 O7         -2.0130    2.8853    2.3400 O.3       1 <0>        -0.5512
     23 P1         -2.9430    4.0843    1.6841 P.3       1 <0>         1.3712
     24 H1         -0.7262   -5.9584    1.1846 H         1 <0>         0.1500
     25 H2         -3.0138    0.0337    0.7328 H         1 <0>         0.1500
     26 H3          1.5934    1.4794    1.1289 H         1 <0>         0.0000
     27 H4         -0.0011    0.0012    0.0011 H         1 <0>         0.0000
     28 H5          0.0356    1.7105    3.4337 H         1 <0>         0.0000
     29 H6         -0.1996   -1.6322    2.6171 H         1 <0>         0.0000
     30 H7         -1.2043    2.0360    0.6553 H         1 <0>         0.0000
     31 H8         -0.1948    3.2622    1.4650 H         1 <0>         0.0000
     32 H9         -5.2074   -3.9423   -0.8738 H         1 <0>         0.4000
     33 H10        -4.8247   -5.6431   -0.8864 H         1 <0>         0.4000
     34 H11         2.2642    1.0001    3.2121 H         1 <0>         0.4000
     35 H12         0.9368   -2.0557    0.0826 H         1 <0>         0.4000
@<TRIPOS>BOND
     1    1   11 ar
     2    1   12 ar
     3    2   13 2
     4    2   14 1
     5    3    4 ar
     6    3    5 ar
     7    3   13 1
     8    4   11 ar
     9    4   14 1
    10    5   12 ar
    11    5   15 1
    12    6    7 1
    13    6    8 1
    14    6   20 1
    15    7    9 1
    16    7   21 1
    17    8   10 1
    18    8   19 1
    19    9   14 1
    20    9   19 1
    21   10   22 1
    22   16   23 1
    23   17   23 1
    24   18   23 2
    25   22   23 1
    26    1   24 1
    27    2   25 1
    28    6   26 1
    29    7   27 1
    30    8   28 1
    31    9   29 1
    32   10   30 1
    33   10   31 1
    34   15   32 1
    35   15   33 1
    36   20   34 1
    37   21   35 1
@<TRIPOS>MOLECULE
7QR9_1
   44    48     0     0     0
SMALL
USER_CHARGES

@<TRIPOS>ATOM
      1 C1          0.1597   -1.9996    2.3969 C.ar      1 <0>        -0.1500
      2 C2         -2.0898   -2.4987    1.6704 C.ar      1 <0>        -0.1500
      3 C3          0.2496   -3.2612    2.9852 C.ar      1 <0>        -0.1500
      4 C4         -1.9999   -3.7603    2.2586 C.ar      1 <0>        -0.1500
      5 C5          2.1356   -0.3308   -0.1093 C.ar      1 <0>        -0.1500
      6 C6          0.2536    1.7600   -3.4668 C.ar      1 <0>        -0.1500
      7 C7         -2.0389    1.9691   -2.7703 C.ar      1 <0>        -0.1500
      8 C8         -0.5531   -1.5253   -2.5022 C.2       1 <0>        -0.1500
      9 C9          3.1439   -0.9424   -0.8421 C.ar      1 <0>         0.1600
     10 C10        -0.2157    1.4522   -4.7336 C.ar      1 <0>         0.1600
     11 C11        -2.4056    1.6521   -4.0684 C.ar      1 <0>         0.1600
     12 C12        -0.1173   -2.2784   -3.5711 C.2       1 <0>        -0.3016
     13 C13        -1.7962    1.6477    0.7293 C.2       1 <0>         0.0365
     14 C14         0.5865   -1.1764   -1.7302 C.ar      1 <0>         0.0000
     15 C15        -1.0100   -1.6183    1.7396 C.ar      1 <0>         0.0540
     16 C16         0.8200   -0.4439   -0.5551 C.ar      1 <0>         0.0530
     17 C17        -0.6819    2.0221   -2.4721 C.ar      1 <0>        -0.1435
     18 C18        -0.8302   -4.1415    2.9160 C.ar      1 <0>         0.1900
     19 C19        -1.1024   -0.3231    1.1359 C.2       1 <0>         0.1732
     20 C20        -0.2860    0.1554    0.1384 C.2       1 <0>        -0.2046
     21 C21         1.6907   -1.7374   -2.3652 C.ar      1 <0>         0.1054
     22 C22        -0.2275    2.3610   -1.0781 C.3       1 <0>         0.3991
     23 N1         -1.5259    1.3912   -5.0612 N.ar      1 <0>        -0.6200
     24 N2          2.9780   -1.6588   -1.9782 N.ar      1 <0>        -0.5670
     25 N3         -2.0405    0.6105    1.4991 N.2       1 <0>        -0.5653
     26 N4          1.2449   -2.4010   -3.4777 N.pl3     1 <0>         0.0332
     27 N5         -0.7429    1.4187   -0.1118 N.pl3     1 <0>         0.0476
     28 F1         -0.7437   -5.3530    3.4809 F         1 <0>        -0.1900
     29 H1          1.0100   -1.3247    2.4602 H         1 <0>         0.1500
     30 H2         -3.0084   -2.2167    1.1613 H         1 <0>         0.1500
     31 H3          1.1599   -3.5579    3.4977 H         1 <0>         0.1500
     32 H4         -2.8399   -4.4464    2.2049 H         1 <0>         0.1500
     33 H5          2.3788    0.2228    0.7924 H         1 <0>         0.1500
     34 H6          1.3192    1.7924   -3.2662 H         1 <0>         0.1500
     35 H7         -2.7924    2.1687   -2.0162 H         1 <0>         0.1500
     36 H8         -1.5829   -1.2597   -2.3063 H         1 <0>         0.1500
     37 H9          4.1756   -0.8643   -0.5091 H         1 <0>         0.1500
     38 H10         0.4732    1.2385   -5.5443 H         1 <0>         0.1500
     39 H11        -3.4515    1.5979   -4.3520 H         1 <0>         0.1500
     40 H12        -0.6552   -2.7374   -4.3886 H         1 <0>         0.1500
     41 H13        -2.3425    2.5808    0.7357 H         1 <0>         0.1500
     42 H14         0.8670    2.3610   -1.0074 H         1 <0>         0.0000
     43 H15        -0.5580    3.3655   -0.7870 H         1 <0>         0.0000
     44 H16         1.8313   -2.9034   -4.1295 H         1 <0>         0.2700
@<TRIPOS>BOND
     1    1    3 ar
     2    1   15 ar
     3    2    4 ar
     4    2   15 ar
     5    3   18 ar
     6    4   18 ar
     7    5    9 ar
     8    5   16 ar
     9    6   10 ar
    10    6   17 ar
    11    7   11 ar
    12    7   17 ar
    13    8   12 2
    14    8   14 1
    15    9   24 ar
    16   10   23 ar
    17   11   23 ar
    18   12   26 1
    19   13   25 2
    20   13   27 1
    21   14   16 ar
    22   14   21 ar
    23   15   19 1
    24   16   20 1
    25   17   22 1
    26   18   28 1
    27   19   20 2
    28   19   25 1
    29   20   27 1
    30   21   24 ar
    31   21   26 1
    32   22   27 1
    33    1   29 1
    34    2   30 1
    35    3   31 1
    36    4   32 1
    37    5   33 1
    38    6   34 1
    39    7   35 1
    40    8   36 1
    41    9   37 1
    42   10   38 1
    43   11   39 1
    44   12   40 1
    45   13   41 1
    46   22   42 1
    47   22   43 1
    48   26   44 1
@<TRIPOS>MOLECULE
7QRA_1
   48    52     0     0     0
SMALL
USER_CHARGES

@<TRIPOS>ATOM
      1 C1          1.3080    8.3258    4.3631 C.ar      1 <0>        -0.1500
      2 C2          2.1578    7.1858    6.3164 C.ar      1 <0>        -0.1500
      3 C3          1.2078    9.5079    5.0966 C.ar      1 <0>        -0.1500
      4 C4          2.0576    8.3680    7.0499 C.ar      1 <0>        -0.1500
      5 C5         -1.1053    6.3941    2.5037 C.ar      1 <0>        -0.1500
      6 C6         -1.3162    4.3136    5.6674 C.2       1 <0>        -0.1500
      7 C7         -2.4711    6.6436    2.5050 C.ar      1 <0>         0.1600
      8 C8         -2.5732    4.1767    6.2160 C.2       1 <0>        -0.3016
      9 C9          2.7483    4.2353    3.3019 C.2       1 <0>         0.0365
     10 C10        -1.4414    5.1166    4.5030 C.ar      1 <0>         0.0000
     11 C11         1.7829    7.1647    4.9730 C.ar      1 <0>         0.0540
     12 C12        -0.5657    5.6122    3.5235 C.ar      1 <0>         0.0530
     13 C13         1.5826    9.5291    6.4400 C.ar      1 <0>         0.1900
     14 C14         1.8856    5.9510    4.2200 C.2       1 <0>         0.1732
     15 C15         0.8429    5.3009    3.6030 C.2       1 <0>        -0.2046
     16 C16        -2.7888    5.4443    4.3823 C.ar      1 <0>         0.1054
     17 C17         0.5805    0.6867    0.6304 C.3       1 <0>         0.0000
     18 C18         0.0815    0.7258    2.0723 C.3       1 <0>         0.0000
     19 C19         0.4963    2.0583   -0.0341 C.3       1 <0>         0.0000
     20 C20         0.8166    1.7822    2.8952 C.3       1 <0>         0.0000
     21 C21         1.2341    3.1234    0.7748 C.3       1 <0>         0.0000
     22 C22         0.7360    3.1659    2.2291 C.3       1 <0>         0.2556
     23 N1         -3.3603    6.1932    3.4204 N.ar      1 <0>        -0.5670
     24 N2          3.0690    5.2828    4.0286 N.2       1 <0>        -0.5653
     25 N3         -3.4584    4.8660    5.4284 N.pl3     1 <0>         0.0332
     26 N4          1.4111    4.2040    3.0188 N.pl3     1 <0>         0.0476
     27 F1          1.4864   10.6644    7.1443 F         1 <0>        -0.1900
     28 H1          1.0111    8.3256    3.3169 H         1 <0>         0.1500
     29 H2          2.5303    6.2893    6.8064 H         1 <0>         0.1500
     30 H3          0.8372   10.4118    4.6221 H         1 <0>         0.1500
     31 H4          2.3496    8.3854    8.0958 H         1 <0>         0.1500
     32 H5         -0.4787    6.8054    1.7183 H         1 <0>         0.1500
     33 H6         -0.4109    3.8790    6.0687 H         1 <0>         0.1500
     34 H7         -2.9088    7.2514    1.7175 H         1 <0>         0.1500
     35 H8         -2.9155    3.6502    7.0958 H         1 <0>         0.1500
     36 H9          3.4338    3.4747    2.9544 H         1 <0>         0.1500
     37 H10         1.6194    0.3354    0.6127 H         1 <0>         0.0000
     38 H11        -0.0113   -0.0357    0.0569 H         1 <0>         0.0000
     39 H12        -0.9941    0.9410    2.0810 H         1 <0>         0.0000
     40 H13         0.2139   -0.2586    2.5352 H         1 <0>         0.0000
     41 H14         0.9185    2.0054   -1.0440 H         1 <0>         0.0000
     42 H15        -0.5563    2.3476   -0.1428 H         1 <0>         0.0000
     43 H16         0.3901    1.8246    3.9049 H         1 <0>         0.0000
     44 H17         1.8672    1.4846    3.0135 H         1 <0>         0.0000
     45 H18         2.3118    2.9135    0.7546 H         1 <0>         0.0000
     46 H19         1.0997    4.1037    0.3017 H         1 <0>         0.0000
     47 H20        -0.3365    3.4895    2.2226 H         1 <0>         0.0000
     48 H21        -4.4527    4.9376    5.5934 H         1 <0>         0.2700
@<TRIPOS>BOND
     1    1    3 ar
     2    1   11 ar
     3    2    4 ar
     4    2   11 ar
     5    3   13 ar
     6    4   13 ar
     7    5    7 ar
     8    5   12 ar
     9    6    8 2
    10    6   10 1
    11    7   23 ar
    12    8   25 1
    13    9   24 2
    14    9   26 1
    15   10   12 ar
    16   10   16 ar
    17   11   14 1
    18   12   15 1
    19   13   27 1
    20   14   15 2
    21   14   24 1
    22   15   26 1
    23   16   23 ar
    24   16   25 1
    25   17   18 1
    26   17   19 1
    27   18   20 1
    28   19   21 1
    29   20   22 1
    30   21   22 1
    31   22   26 1
    32    1   28 1
    33    2   29 1
    34    3   30 1
    35    4   31 1
    36    5   32 1
    37    6   33 1
    38    7   34 1
    39    8   35 1
    40    9   36 1
    41   17   37 1
    42   17   38 1
    43   18   39 1
    44   18   40 1
    45   19   41 1
    46   19   42 1
    47   20   43 1
    48   20   44 1
    49   21   45 1
    50   21   46 1
    51   22   47 1
    52   25   48 1
@<TRIPOS>MOLECULE
7QRB_1
   71    75     0     0     0
SMALL
USER_CHARGES

@<TRIPOS>ATOM
      1 C1         -5.7307   -0.3619   -4.0115 C.ar      1 <0>        -0.1500
      2 C2         -6.7006   -1.6068   -2.1821 C.ar      1 <0>        -0.1500
      3 C3         -6.8252   -0.6868   -4.8129 C.ar      1 <0>        -0.1500
      4 C4         -7.7951   -1.9317   -2.9835 C.ar      1 <0>        -0.1500
      5 C5         -2.1828   -0.8905   -4.3928 C.ar      1 <0>        -0.1500
      6 C6         -2.7810   -3.9252   -2.1987 C.2       1 <0>        -0.1500
      7 C7         -1.6128   -1.6567   -5.4006 C.ar      1 <0>         0.1600
      8 C8         -2.3752   -5.1350   -2.7197 C.2       1 <0>        -0.3016
      9 C9         -3.4231    0.3063   -0.2484 C.2       1 <0>         0.0365
     10 C10        -2.4761   -2.9219   -3.1562 C.ar      1 <0>         0.0000
     11 C11        -5.6684   -0.8219   -2.6961 C.ar      1 <0>         0.0540
     12 C12        -2.6293   -1.5283   -3.2369 C.ar      1 <0>         0.0530
     13 C13        -7.8574   -1.4716   -4.2989 C.ar      1 <0>         0.1900
     14 C14        -4.5447   -0.4885   -1.8735 C.2       1 <0>         0.1732
     15 C15        -3.2348   -0.8126   -2.1376 C.2       1 <0>        -0.2046
     16 C16        -1.8873   -3.5653   -4.2408 C.ar      1 <0>         0.1054
     17 C17        -0.3876    1.0330   -0.8508 C.3       1 <0>         0.0000
     18 C18        -0.6749   -1.1477    0.4093 C.3       1 <0>         0.0000
     19 C19         1.1261    0.9552   -0.6418 C.3       1 <0>         0.0000
     20 C20         0.8387   -1.2270    0.6186 C.3       1 <0>         0.0000
     21 C21        -1.0280   -0.3651   -0.8663 C.3       1 <0>         0.2556
     22 C22         1.5135    0.1456    0.5969 C.3       1 <0>         0.3557
     23 C23         4.2316    4.6960    4.7212 C.3       1 <0>         0.5030
     24 C24         6.2103    5.2082    3.2988 C.3       1 <0>         0.5030
     25 C25         4.4239    1.8910    4.0115 C.3       1 <0>         0.0000
     26 C26         5.5859    2.8417    3.7572 C.3       1 <0>         0.5030
     27 C27         3.4069    1.8649    2.8786 C.3       1 <0>         0.1052
     28 N1         -1.4399   -2.9987   -5.3774 N.ar      1 <0>        -0.5670
     29 N2         -4.6551    0.2082   -0.6962 N.2       1 <0>        -0.5653
     30 N3         -1.8344   -4.9049   -3.9581 N.pl3     1 <0>         0.0332
     31 N4         -2.5282   -0.2965   -1.0881 N.pl3     1 <0>         0.0476
     32 N5          1.1404    0.9024    1.8223 N.pl3     1 <0>        -0.9137
     33 N6          5.0955    4.2281    3.5748 N.4       1 <0>        -0.9590
     34 O1          2.6610   -0.6142    3.2628 O.2       1 <0>        -0.6500
     35 O2          1.3424    1.2415    4.3465 O.2       1 <0>        -0.6500
     36 F1         -8.9084   -1.7836   -5.0686 F         1 <0>        -0.1900
     37 S1          2.0914    0.7183    3.2201 S.o2      1 <0>         1.3328
     38 H1         -4.9339    0.2504   -4.4273 H         1 <0>         0.1500
     39 H2         -6.6673   -1.9729   -1.1587 H         1 <0>         0.1500
     40 H3         -6.8735   -0.3294   -5.8372 H         1 <0>         0.1500
     41 H4         -8.5994   -2.5424   -2.5841 H         1 <0>         0.1500
     42 H5         -2.2741    0.1846   -4.5136 H         1 <0>         0.1500
     43 H6         -3.2461   -3.7881   -1.2321 H         1 <0>         0.1500
     44 H7         -1.2593   -1.1758   -6.3090 H         1 <0>         0.1500
     45 H8         -2.4232   -6.1378   -2.3191 H         1 <0>         0.1500
     46 H9         -3.1217    0.7970    0.6668 H         1 <0>         0.1500
     47 H10        -0.8400    1.6448   -0.0590 H         1 <0>         0.0000
     48 H11        -0.5976    1.5502   -1.7954 H         1 <0>         0.0000
     49 H12        -1.0868   -2.1628    0.3501 H         1 <0>         0.0000
     50 H13        -1.1451   -0.6761    1.2818 H         1 <0>         0.0000
     51 H14         1.5783    0.4874   -1.5258 H         1 <0>         0.0000
     52 H15         1.5346    1.9709   -0.5786 H         1 <0>         0.0000
     53 H16         1.0454   -1.7400    1.5656 H         1 <0>         0.0000
     54 H17         1.2705   -1.8462   -0.1779 H         1 <0>         0.0000
     55 H18        -0.6649   -0.9252   -1.7530 H         1 <0>         0.0000
     56 H19         2.6016    0.0154    0.6196 H         1 <0>         0.0000
     57 H20         4.8443    4.6914    5.6245 H         1 <0>         0.0000
     58 H21         3.8838    5.7041    4.4877 H         1 <0>         0.0000
     59 H22         3.3931    4.0028    4.8122 H         1 <0>         0.0000
     60 H23         6.8708    5.2160    4.1678 H         1 <0>         0.0000
     61 H24         6.7397    4.8694    2.4063 H         1 <0>         0.0000
     62 H25         5.7602    6.1899    3.1393 H         1 <0>         0.0000
     63 H26         4.8293    0.8814    4.1535 H         1 <0>         0.0000
     64 H27         3.9230    2.1543    4.9517 H         1 <0>         0.0000
     65 H28         6.1457    2.5771    2.8553 H         1 <0>         0.0000
     66 H29         6.2669    2.8622    4.6131 H         1 <0>         0.0000
     67 H30         3.8670    1.5479    1.9381 H         1 <0>         0.0000
     68 H31         2.9354    2.8405    2.7317 H         1 <0>         0.0000
     69 H32        -1.4550   -5.6140   -4.5698 H         1 <0>         0.2700
     70 H33         0.7605    1.8310    1.6232 H         1 <0>         0.4200
     71 H34         4.5124    4.2246    2.7624 H         1 <0>         0.4500
@<TRIPOS>BOND
     1    1    3 ar
     2    1   11 ar
     3    2    4 ar
     4    2   11 ar
     5    3   13 ar
     6    4   13 ar
     7    5    7 ar
     8    5   12 ar
     9    6    8 2
    10    6   10 1
    11    7   28 ar
    12    8   30 1
    13    9   29 2
    14    9   31 1
    15   10   12 ar
    16   10   16 ar
    17   11   14 1
    18   12   15 1
    19   13   36 1
    20   14   15 2
    21   14   29 1
    22   15   31 1
    23   16   28 ar
    24   16   30 1
    25   17   19 1
    26   17   21 1
    27   18   20 1
    28   18   21 1
    29   19   22 1
    30   20   22 1
    31   21   31 1
    32   22   32 1
    33   23   33 1
    34   24   33 1
    35   25   26 1
    36   25   27 1
    37   26   33 1
    38   27   37 1
    39   32   37 1
    40   34   37 2
    41   35   37 2
    42    1   38 1
    43    2   39 1
    44    3   40 1
    45    4   41 1
    46    5   42 1
    47    6   43 1
    48    7   44 1
    49    8   45 1
    50    9   46 1
    51   17   47 1
    52   17   48 1
    53   18   49 1
    54   18   50 1
    55   19   51 1
    56   19   52 1
    57   20   53 1
    58   20   54 1
    59   21   55 1
    60   22   56 1
    61   23   57 1
    62   23   58 1
    63   23   59 1
    64   24   60 1
    65   24   61 1
    66   24   62 1
    67   25   63 1
    68   25   64 1
    69   26   65 1
    70   26   66 1
    71   27   67 1
    72   27   68 1
    73   30   69 1
    74   32   70 1
    75   33   71 1
