@<TRIPOS>MOLECULE
7QRA.A
48 52 1 0 0 
SMALL
USER_CHARGES


@<TRIPOS>ATOM
  1 N1       2.1770     0.3020    -7.0900 N.2   1 <1>  -0.5653 
  2 C2      -0.7830    -0.2700    -7.0790 C.ar  1 <1>  -0.1500 
  3 N3       1.4520    -3.4080    -1.7770 N.ar  1 <1>  -0.5670 
  4 C4      -0.6010     0.1330    -4.7180 C.ar  1 <1>  -0.1500 
  5 C5       0.0150    -0.1400    -5.9460 C.ar  1 <1>   0.0540 
  6 C6       1.4860    -0.2990    -6.0430 C.2   1 <1>   0.1732 
  7 F7      -4.0700     0.2530    -5.6900 F     1 <1>  -0.1900 
  8 C8      -2.7170     0.1450    -5.7740 C.ar  1 <1>   0.1900 
  9 C9      -1.9750     0.2820    -4.6300 C.ar  1 <1>  -0.1500 
 10 C10     -2.1570    -0.1300    -7.0000 C.ar  1 <1>  -0.1500 
 11 C11      3.4380     0.0130    -6.8620 C.2   1 <1>   0.0365 
 12 N12      3.6380    -0.7410    -5.7290 N.pl3 1 <1>   0.0476 
 13 C13      4.9430    -1.1380    -5.1300 C.3   1 <1>   0.1756 
 14 C14      5.5060    -0.0320    -4.2410 C.3   1 <1>  -0.1600 
 15 C15      6.8240    -0.4680    -3.6050 C.3   1 <1>  -0.1600 
 16 C16      7.8410    -0.8650    -4.6620 C.3   1 <1>  -0.1600 
 17 C17      7.2810    -1.9480    -5.5670 C.3   1 <1>  -0.1600 
 18 C18      5.9620    -1.5120    -6.2010 C.3   1 <1>  -0.1600 
 19 C19      2.3580    -0.9710    -5.2030 C.2   1 <1>  -0.2046 
 20 C20      2.0410    -1.8360    -4.0350 C.ar  1 <1>   0.0530 
 21 C21      2.8140    -1.7510    -2.8730 C.ar  1 <1>  -0.1500 
 22 C22      2.4850    -2.5520    -1.7980 C.ar  1 <1>   0.1600 
 23 C23      0.7160    -3.4810    -2.8980 C.ar  1 <1>   0.1054 
 24 N24     -0.3460    -4.3070    -3.1360 N.pl3 1 <1>   0.0332 
 25 C25     -0.7700    -4.0940    -4.4280 C.2   1 <1>  -0.3016 
 26 C26     -0.0070    -3.1410    -5.0220 C.2   1 <1>  -0.1500 
 27 C27      0.9550    -2.7280    -4.0540 C.ar  1 <1>   0.0000 
 28 H1      -0.3201    -0.4896    -8.0087 H     1 <1>   0.1500 
 29 H2      -0.0047     0.2136    -3.8503 H     1 <1>   0.1500 
 30 H3      -2.4496     0.4840    -3.7046 H     1 <1>   0.1500 
 31 H4      -2.7648    -0.2603    -7.8562 H     1 <1>   0.1500 
 32 H5       4.2662     0.3133    -7.4524 H     1 <1>   0.1500 
 33 H6       4.7902    -2.0207    -4.5259 H     1 <1>   0.0800 
 34 H7       4.8192     0.3210    -3.4813 H     1 <1>   0.0800 
 35 H8       5.7078     0.8318    -4.8779 H     1 <1>   0.0800 
 36 H9       6.6520    -1.3111    -2.9319 H     1 <1>   0.0800 
 37 H10      7.2532     0.3519    -3.0305 H     1 <1>   0.0800 
 38 H11      8.7480    -1.2379    -4.1779 H     1 <1>   0.0800 
 39 H12      8.1102     0.0050    -5.2644 H     1 <1>   0.0800 
 40 H13      7.1265    -2.8614    -4.9877 H     1 <1>   0.0800 
 41 H14      8.0045    -2.1684    -6.3559 H     1 <1>   0.0800 
 42 H15      6.1571    -0.6639    -6.8589 H     1 <1>   0.0800 
 43 H16      5.5735    -2.3334    -6.8030 H     1 <1>   0.0800 
 44 H17      3.6177    -1.0916    -2.7721 H     1 <1>   0.1500 
 45 H18      3.0771    -2.4972    -0.9186 H     1 <1>   0.1500 
 46 H19     -0.7923    -4.9250    -2.4286 H     1 <1>   0.2700 
 47 H20     -1.5892    -4.6395    -4.8200 H     1 <1>   0.1500 
 48 H21     -0.1011    -2.7958    -6.0185 H     1 <1>   0.1500 
@<TRIPOS>BOND
  1   1   6  1   
  2   1  11  2   
  3   2   5  ar  
  4   2  10  ar  
  5   2  28  1   
  6   3  22  ar  
  7   3  23  ar  
  8   4   5  ar  
  9   4   9  ar  
 10   4  29  1   
 11   5   6  1   
 12   6  19  2   
 13   7   8  1   
 14   8   9  ar  
 15   8  10  ar  
 16   9  30  1   
 17  10  31  1   
 18  11  12  1   
 19  11  32  1   
 20  12  13  1   
 21  12  19  1   
 22  13  14  1   
 23  13  18  1   
 24  13  33  1   
 25  14  15  1   
 26  14  34  1   
 27  14  35  1   
 28  15  16  1   
 29  15  36  1   
 30  15  37  1   
 31  16  17  1   
 32  16  38  1   
 33  16  39  1   
 34  17  18  1   
 35  17  40  1   
 36  17  41  1   
 37  18  42  1   
 38  18  43  1   
 39  19  20  1   
 40  20  21  ar  
 41  20  27  ar  
 42  21  22  ar  
 43  21  44  1   
 44  22  45  1   
 45  23  24  1   
 46  23  27  ar  
 47  24  25  1   
 48  24  46  1   
 49  25  26  2   
 50  25  47  1   
 51  26  27  1   
 52  26  48  1   
@<TRIPOS>SUBSTRUCTURE
  1 ****  19 GROUP 4 A **** 0

# MOE 2022.02 (io_trps.svl 2020.11)
